
---------- Begin Simulation Statistics ----------
simSeconds                                  19.212773                       # Number of seconds simulated (Second)
simTicks                                 19212772988000                       # Number of ticks simulated (Tick)
finalTick                                126433695432000                       # Number of ticks from beginning of simulation (restored from checkpoints and never reset) (Tick)
simFreq                                  1000000000000                       # The number of ticks per simulated second ((Tick/Second))
hostSeconds                                   1354.19                       # Real time elapsed on the host (Second)
hostTickRate                              14187647852                       # The number of ticks simulated per host second (ticks/s) ((Tick/Second))
hostMemory                                    8514068                       # Number of bytes of host memory used (Byte)
simInsts                                    484927752                       # Number of instructions simulated (Count)
simOps                                      486071970                       # Number of ops (including micro ops) simulated (Count)
hostInstRate                                   358094                       # Simulator instruction rate (inst/s) ((Count/Second))
hostOpRate                                     358939                       # Simulator op (including micro ops) rate (op/s) ((Count/Second))
board.bridge.power_state.pwrStateResidencyTicks::UNDEFINED 126433695432000                       # Cumulative time (in ticks) in various power states (Tick)
board.cache_hierarchy.iobridge.power_state.pwrStateResidencyTicks::UNDEFINED 126433695432000                       # Cumulative time (in ticks) in various power states (Tick)
board.cache_hierarchy.membus.transDist::ReadReq    668268911                       # Transaction distribution (Count)
board.cache_hierarchy.membus.transDist::ReadResp    669463354                       # Transaction distribution (Count)
board.cache_hierarchy.membus.transDist::WriteReq     72595348                       # Transaction distribution (Count)
board.cache_hierarchy.membus.transDist::WriteResp     72595348                       # Transaction distribution (Count)
board.cache_hierarchy.membus.transDist::LoadLockedReq      1194444                       # Transaction distribution (Count)
board.cache_hierarchy.membus.transDist::StoreCondReq      1092301                       # Transaction distribution (Count)
board.cache_hierarchy.membus.transDist::StoreCondResp      1092301                       # Transaction distribution (Count)
board.cache_hierarchy.membus.transDist::SwapReq      1123630                       # Transaction distribution (Count)
board.cache_hierarchy.membus.transDist::SwapResp      1123630                       # Transaction distribution (Count)
board.cache_hierarchy.membus.pktCount_board.processor.cores0.core.icache_port::board.memory.mem_ctrl.port    569437347                       # Packet count per connected requestor and responder (Count)
board.cache_hierarchy.membus.pktCount_board.processor.cores0.core.icache_port::total    569437347                       # Packet count per connected requestor and responder (Count)
board.cache_hierarchy.membus.pktCount_board.processor.cores0.core.dcache_port::board.platform.clint.pio         9624                       # Packet count per connected requestor and responder (Count)
board.cache_hierarchy.membus.pktCount_board.processor.cores0.core.dcache_port::board.memory.mem_ctrl.port    177914288                       # Packet count per connected requestor and responder (Count)
board.cache_hierarchy.membus.pktCount_board.processor.cores0.core.dcache_port::total    177923912                       # Packet count per connected requestor and responder (Count)
board.cache_hierarchy.membus.pktCount_board.processor.cores0.core.mmu.itb.walker.port::board.memory.mem_ctrl.port          186                       # Packet count per connected requestor and responder (Count)
board.cache_hierarchy.membus.pktCount_board.processor.cores0.core.mmu.itb.walker.port::total          186                       # Packet count per connected requestor and responder (Count)
board.cache_hierarchy.membus.pktCount_board.processor.cores0.core.mmu.dtb.walker.port::board.memory.mem_ctrl.port          260                       # Packet count per connected requestor and responder (Count)
board.cache_hierarchy.membus.pktCount_board.processor.cores0.core.mmu.dtb.walker.port::total          260                       # Packet count per connected requestor and responder (Count)
board.cache_hierarchy.membus.pktCount_board.processor.cores1.core.icache_port::board.memory.mem_ctrl.port    573832984                       # Packet count per connected requestor and responder (Count)
board.cache_hierarchy.membus.pktCount_board.processor.cores1.core.icache_port::total    573832984                       # Packet count per connected requestor and responder (Count)
board.cache_hierarchy.membus.pktCount_board.processor.cores1.core.dcache_port::board.platform.clint.pio         9614                       # Packet count per connected requestor and responder (Count)
board.cache_hierarchy.membus.pktCount_board.processor.cores1.core.dcache_port::board.platform.plic.pio            6                       # Packet count per connected requestor and responder (Count)
board.cache_hierarchy.membus.pktCount_board.processor.cores1.core.dcache_port::board.bridge.cpu_side_port            6                       # Packet count per connected requestor and responder (Count)
board.cache_hierarchy.membus.pktCount_board.processor.cores1.core.dcache_port::board.memory.mem_ctrl.port    167344760                       # Packet count per connected requestor and responder (Count)
board.cache_hierarchy.membus.pktCount_board.processor.cores1.core.dcache_port::total    167354386                       # Packet count per connected requestor and responder (Count)
board.cache_hierarchy.membus.pktCount_board.processor.cores1.core.mmu.itb.walker.port::board.memory.mem_ctrl.port           60                       # Packet count per connected requestor and responder (Count)
board.cache_hierarchy.membus.pktCount_board.processor.cores1.core.mmu.itb.walker.port::total           60                       # Packet count per connected requestor and responder (Count)
board.cache_hierarchy.membus.pktCount_board.processor.cores1.core.mmu.dtb.walker.port::board.memory.mem_ctrl.port          132                       # Packet count per connected requestor and responder (Count)
board.cache_hierarchy.membus.pktCount_board.processor.cores1.core.mmu.dtb.walker.port::total          132                       # Packet count per connected requestor and responder (Count)
board.cache_hierarchy.membus.pktCount::total   1488549267                       # Packet count per connected requestor and responder (Count)
board.cache_hierarchy.membus.pktSize_board.processor.cores0.core.icache_port::board.memory.mem_ctrl.port   1138874692                       # Cumulative packet size per connected requestor and responder (Byte)
board.cache_hierarchy.membus.pktSize_board.processor.cores0.core.icache_port::total   1138874692                       # Cumulative packet size per connected requestor and responder (Byte)
board.cache_hierarchy.membus.pktSize_board.processor.cores0.core.dcache_port::board.platform.clint.pio        38464                       # Cumulative packet size per connected requestor and responder (Byte)
board.cache_hierarchy.membus.pktSize_board.processor.cores0.core.dcache_port::board.memory.mem_ctrl.port    625325623                       # Cumulative packet size per connected requestor and responder (Byte)
board.cache_hierarchy.membus.pktSize_board.processor.cores0.core.dcache_port::total    625364087                       # Cumulative packet size per connected requestor and responder (Byte)
board.cache_hierarchy.membus.pktSize_board.processor.cores0.core.mmu.itb.walker.port::board.memory.mem_ctrl.port          744                       # Cumulative packet size per connected requestor and responder (Byte)
board.cache_hierarchy.membus.pktSize_board.processor.cores0.core.mmu.itb.walker.port::total          744                       # Cumulative packet size per connected requestor and responder (Byte)
board.cache_hierarchy.membus.pktSize_board.processor.cores0.core.mmu.dtb.walker.port::board.memory.mem_ctrl.port         1040                       # Cumulative packet size per connected requestor and responder (Byte)
board.cache_hierarchy.membus.pktSize_board.processor.cores0.core.mmu.dtb.walker.port::total         1040                       # Cumulative packet size per connected requestor and responder (Byte)
board.cache_hierarchy.membus.pktSize_board.processor.cores1.core.icache_port::board.memory.mem_ctrl.port   1147665968                       # Cumulative packet size per connected requestor and responder (Byte)
board.cache_hierarchy.membus.pktSize_board.processor.cores1.core.icache_port::total   1147665968                       # Cumulative packet size per connected requestor and responder (Byte)
board.cache_hierarchy.membus.pktSize_board.processor.cores1.core.dcache_port::board.platform.clint.pio        38440                       # Cumulative packet size per connected requestor and responder (Byte)
board.cache_hierarchy.membus.pktSize_board.processor.cores1.core.dcache_port::board.platform.plic.pio           12                       # Cumulative packet size per connected requestor and responder (Byte)
board.cache_hierarchy.membus.pktSize_board.processor.cores1.core.dcache_port::board.bridge.cpu_side_port           12                       # Cumulative packet size per connected requestor and responder (Byte)
board.cache_hierarchy.membus.pktSize_board.processor.cores1.core.dcache_port::board.memory.mem_ctrl.port    555243363                       # Cumulative packet size per connected requestor and responder (Byte)
board.cache_hierarchy.membus.pktSize_board.processor.cores1.core.dcache_port::total    555281827                       # Cumulative packet size per connected requestor and responder (Byte)
board.cache_hierarchy.membus.pktSize_board.processor.cores1.core.mmu.itb.walker.port::board.memory.mem_ctrl.port          240                       # Cumulative packet size per connected requestor and responder (Byte)
board.cache_hierarchy.membus.pktSize_board.processor.cores1.core.mmu.itb.walker.port::total          240                       # Cumulative packet size per connected requestor and responder (Byte)
board.cache_hierarchy.membus.pktSize_board.processor.cores1.core.mmu.dtb.walker.port::board.memory.mem_ctrl.port          528                       # Cumulative packet size per connected requestor and responder (Byte)
board.cache_hierarchy.membus.pktSize_board.processor.cores1.core.mmu.dtb.walker.port::total          528                       # Cumulative packet size per connected requestor and responder (Byte)
board.cache_hierarchy.membus.pktSize::total   3467189126                       # Cumulative packet size per connected requestor and responder (Byte)
board.cache_hierarchy.membus.snoops                 0                       # Total snoops (Count)
board.cache_hierarchy.membus.snoopTraffic            0                       # Total snoop traffic (Byte)
board.cache_hierarchy.membus.snoopFanout::samples    744274634                       # Request fanout histogram (Count)
board.cache_hierarchy.membus.snoopFanout::mean            0                       # Request fanout histogram (Count)
board.cache_hierarchy.membus.snoopFanout::stdev            0                       # Request fanout histogram (Count)
board.cache_hierarchy.membus.snoopFanout::underflows            0      0.00%      0.00% # Request fanout histogram (Count)
board.cache_hierarchy.membus.snoopFanout::0    744274634    100.00%    100.00% # Request fanout histogram (Count)
board.cache_hierarchy.membus.snoopFanout::1            0      0.00%    100.00% # Request fanout histogram (Count)
board.cache_hierarchy.membus.snoopFanout::2            0      0.00%    100.00% # Request fanout histogram (Count)
board.cache_hierarchy.membus.snoopFanout::overflows            0      0.00%    100.00% # Request fanout histogram (Count)
board.cache_hierarchy.membus.snoopFanout::min_value            0                       # Request fanout histogram (Count)
board.cache_hierarchy.membus.snoopFanout::max_value            0                       # Request fanout histogram (Count)
board.cache_hierarchy.membus.snoopFanout::total    744274634                       # Request fanout histogram (Count)
board.cache_hierarchy.membus.badaddr_responder.power_state.pwrStateResidencyTicks::UNDEFINED 126433695432000                       # Cumulative time (in ticks) in various power states (Tick)
board.cache_hierarchy.membus.power_state.pwrStateResidencyTicks::UNDEFINED 126433695432000                       # Cumulative time (in ticks) in various power states (Tick)
board.cache_hierarchy.membus.reqLayer0.occupancy     19235000                       # Layer occupancy (ticks) (Tick)
board.cache_hierarchy.membus.reqLayer0.utilization          0.0                       # Layer utilization (Ratio)
board.cache_hierarchy.membus.reqLayer1.occupancy         4000                       # Layer occupancy (ticks) (Tick)
board.cache_hierarchy.membus.reqLayer1.utilization          0.0                       # Layer utilization (Ratio)
board.cache_hierarchy.membus.reqLayer2.occupancy         5000                       # Layer occupancy (ticks) (Tick)
board.cache_hierarchy.membus.reqLayer2.utilization          0.0                       # Layer utilization (Ratio)
board.cache_hierarchy.membus.reqLayer3.occupancy 819066669000                       # Layer occupancy (ticks) (Tick)
board.cache_hierarchy.membus.reqLayer3.utilization          0.0                       # Layer utilization (Ratio)
board.cache_hierarchy.membus.respLayer1.occupancy 653279215500                       # Layer occupancy (ticks) (Tick)
board.cache_hierarchy.membus.respLayer1.utilization          0.0                       # Layer utilization (Ratio)
board.cache_hierarchy.membus.respLayer2.occupancy 156420972565                       # Layer occupancy (ticks) (Tick)
board.cache_hierarchy.membus.respLayer2.utilization          0.0                       # Layer utilization (Ratio)
board.cache_hierarchy.membus.respLayer3.occupancy       230000                       # Layer occupancy (ticks) (Tick)
board.cache_hierarchy.membus.respLayer3.utilization          0.0                       # Layer utilization (Ratio)
board.cache_hierarchy.membus.respLayer4.occupancy       323500                       # Layer occupancy (ticks) (Tick)
board.cache_hierarchy.membus.respLayer4.utilization          0.0                       # Layer utilization (Ratio)
board.cache_hierarchy.membus.respLayer5.occupancy 658476879750                       # Layer occupancy (ticks) (Tick)
board.cache_hierarchy.membus.respLayer5.utilization          0.0                       # Layer utilization (Ratio)
board.cache_hierarchy.membus.respLayer6.occupancy 150127694337                       # Layer occupancy (ticks) (Tick)
board.cache_hierarchy.membus.respLayer6.utilization          0.0                       # Layer utilization (Ratio)
board.cache_hierarchy.membus.respLayer7.occupancy        75250                       # Layer occupancy (ticks) (Tick)
board.cache_hierarchy.membus.respLayer7.utilization          0.0                       # Layer utilization (Ratio)
board.cache_hierarchy.membus.respLayer8.occupancy       168000                       # Layer occupancy (ticks) (Tick)
board.cache_hierarchy.membus.respLayer8.utilization          0.0                       # Layer utilization (Ratio)
board.cache_hierarchy.membus.snoop_filter.totRequests            0                       # Total number of requests made to the snoop filter. (Count)
board.cache_hierarchy.membus.snoop_filter.hitSingleRequests            0                       # Number of requests hitting in the snoop filter with a single holder of the requested data. (Count)
board.cache_hierarchy.membus.snoop_filter.hitMultiRequests            0                       # Number of requests hitting in the snoop filter with multiple (>1) holders of the requested data. (Count)
board.cache_hierarchy.membus.snoop_filter.totSnoops            0                       # Total number of snoops made to the snoop filter. (Count)
board.cache_hierarchy.membus.snoop_filter.hitSingleSnoops            0                       # Number of snoops hitting in the snoop filter with a single holder of the requested data. (Count)
board.cache_hierarchy.membus.snoop_filter.hitMultiSnoops            0                       # Number of snoops hitting in the snoop filter with multiple (>1) holders of the requested data. (Count)
board.clk_domain.clock                           1000                       # Clock period in ticks (Tick)
board.clk_domain.voltage_domain.voltage             1                       # Voltage in Volts (Volt)
board.disk.power_state.pwrStateResidencyTicks::UNDEFINED 126433695432000                       # Cumulative time (in ticks) in various power states (Tick)
board.ethernet.EtherDevice.postedInterrupts            0                       # Number of posts to CPU (Count)
board.ethernet.EtherDevice.descDmaReads             0                       # Number of descriptors the device read w/ DMA (Count)
board.ethernet.EtherDevice.descDmaWrites            0                       # Number of descriptors the device wrote w/ DMA (Count)
board.ethernet.EtherDevice.descDmaRdBytes            0                       # Number of descriptor bytes read w/ DMA (Count)
board.ethernet.EtherDevice.descDmaWrBytes            0                       # Number of descriptor bytes write w/ DMA (Count)
board.ethernet.EtherDevice.postedSwi                0                       # Number of software interrupts posted to CPU (Count)
board.ethernet.EtherDevice.totalSwi                 0                       # Total number of Swi written to ISR (Count)
board.ethernet.EtherDevice.coalescedSwi           nan                       # Average number of Swi's coalesced into each post ((Count/Count))
board.ethernet.EtherDevice.postedRxIdle             0                       # Number of rxIdle interrupts posted to CPU (Count)
board.ethernet.EtherDevice.totalRxIdle              0                       # Total number of RxIdle written to ISR (Count)
board.ethernet.EtherDevice.coalescedRxIdle          nan                       # Average number of RxIdle's coalesced into each post ((Count/Count))
board.ethernet.EtherDevice.postedRxOk               0                       # Number of RxOk interrupts posted to CPU (Count)
board.ethernet.EtherDevice.totalRxOk                0                       # Total number of RxOk written to ISR (Count)
board.ethernet.EtherDevice.coalescedRxOk          nan                       # Average number of RxOk's coalesced into each post ((Count/Count))
board.ethernet.EtherDevice.postedRxDesc             0                       # Number of RxDesc interrupts posted to CPU (Count)
board.ethernet.EtherDevice.totalRxDesc              0                       # Total number of RxDesc written to ISR (Count)
board.ethernet.EtherDevice.coalescedRxDesc          nan                       # Average number of RxDesc's coalesced into each post ((Count/Count))
board.ethernet.EtherDevice.postedTxOk               0                       # Number of TxOk interrupts posted to CPU (Count)
board.ethernet.EtherDevice.totalTxOk                0                       # Total number of TxOk written to ISR (Count)
board.ethernet.EtherDevice.coalescedTxOk          nan                       # Average number of TxOk's coalesced into each post ((Count/Count))
board.ethernet.EtherDevice.postedTxIdle             0                       # Number of TxIdle interrupts posted to CPU (Count)
board.ethernet.EtherDevice.totalTxIdle              0                       # Total number of TxIdle written to ISR (Count)
board.ethernet.EtherDevice.coalescedTxIdle          nan                       # Average number of TxIdle's coalesced into each post ((Count/Count))
board.ethernet.EtherDevice.postedTxDesc             0                       # Number of TxDesc interrupts posted to CPU (Count)
board.ethernet.EtherDevice.totalTxDesc              0                       # Total number of TxDesc written to ISR (Count)
board.ethernet.EtherDevice.coalescedTxDesc          nan                       # Average number of TxDesc's coalesced into each post ((Count/Count))
board.ethernet.EtherDevice.postedRxOrn              0                       # Number of RxOrn posted to CPU (Count)
board.ethernet.EtherDevice.totalRxOrn               0                       # Total number of RxOrn written to ISR (Count)
board.ethernet.EtherDevice.coalescedRxOrn          nan                       # Average number of RxOrn's coalesced into each post ((Count/Count))
board.ethernet.EtherDevice.coalescedTotal          nan                       # Average number of interrupts coalesced into each post ((Count/Count))
board.ethernet.EtherDevice.droppedPackets            0                       # Number of packets dropped (Count)
board.ethernet.power_state.pwrStateResidencyTicks::UNDEFINED 126433695432000                       # Cumulative time (in ticks) in various power states (Tick)
board.iobus.transDist::ReadReq                      1                       # Transaction distribution (Count)
board.iobus.transDist::ReadResp                     1                       # Transaction distribution (Count)
board.iobus.transDist::WriteReq                     2                       # Transaction distribution (Count)
board.iobus.transDist::WriteResp                    2                       # Transaction distribution (Count)
board.iobus.pktCount_board.bridge.mem_side_port::board.disk.pio            6                       # Packet count per connected requestor and responder (Count)
board.iobus.pktCount_board.bridge.mem_side_port::total            6                       # Packet count per connected requestor and responder (Count)
board.iobus.pktCount::total                         6                       # Packet count per connected requestor and responder (Count)
board.iobus.pktSize_board.bridge.mem_side_port::board.disk.pio           12                       # Cumulative packet size per connected requestor and responder (Byte)
board.iobus.pktSize_board.bridge.mem_side_port::total           12                       # Cumulative packet size per connected requestor and responder (Byte)
board.iobus.pktSize::total                         12                       # Cumulative packet size per connected requestor and responder (Byte)
board.iobus.badaddr_responder.power_state.pwrStateResidencyTicks::UNDEFINED 126433695432000                       # Cumulative time (in ticks) in various power states (Tick)
board.iobus.power_state.pwrStateResidencyTicks::UNDEFINED 126433695432000                       # Cumulative time (in ticks) in various power states (Tick)
board.iobus.reqLayer3.occupancy                  5000                       # Layer occupancy (ticks) (Tick)
board.iobus.reqLayer3.utilization                 0.0                       # Layer utilization (Ratio)
board.iobus.respLayer1.occupancy                 4000                       # Layer occupancy (ticks) (Tick)
board.iobus.respLayer1.utilization                0.0                       # Layer utilization (Ratio)
board.memory.mem_ctrl.avgPriority_processor.cores0.core.mmu.dtb.walker::samples       124.00                       # Average QoS priority value for accepted requests (Count)
board.memory.mem_ctrl.avgPriority_processor.cores0.core.mmu.itb.walker::samples        93.00                       # Average QoS priority value for accepted requests (Count)
board.memory.mem_ctrl.avgPriority_processor.cores0.core.inst::samples 284718674.00                       # Average QoS priority value for accepted requests (Count)
board.memory.mem_ctrl.avgPriority_processor.cores0.core.data::samples  53635071.00                       # Average QoS priority value for accepted requests (Count)
board.memory.mem_ctrl.avgPriority_processor.cores1.core.mmu.dtb.walker::samples        59.00                       # Average QoS priority value for accepted requests (Count)
board.memory.mem_ctrl.avgPriority_processor.cores1.core.mmu.itb.walker::samples        30.00                       # Average QoS priority value for accepted requests (Count)
board.memory.mem_ctrl.avgPriority_processor.cores1.core.inst::samples 286916492.00                       # Average QoS priority value for accepted requests (Count)
board.memory.mem_ctrl.avgPriority_processor.cores1.core.data::samples  52465427.00                       # Average QoS priority value for accepted requests (Count)
board.memory.mem_ctrl.priorityMinLatency 0.000000018750                       # per QoS priority minimum request to response latency (Second)
board.memory.mem_ctrl.priorityMaxLatency 0.001688889250                       # per QoS priority maximum request to response latency (Second)
board.memory.mem_ctrl.numReadWriteTurnArounds      1065194                       # Number of turnarounds from READ to WRITE (Count)
board.memory.mem_ctrl.numWriteReadTurnArounds      1065194                       # Number of turnarounds from WRITE to READ (Count)
board.memory.mem_ctrl.numStayReadState     1395818289                       # Number of times bus staying in READ state (Count)
board.memory.mem_ctrl.numStayWriteState      15993677                       # Number of times bus staying in WRITE state (Count)
board.memory.mem_ctrl.readReqs              669463349                       # Number of read requests accepted (Count)
board.memory.mem_ctrl.writeReqs              74801660                       # Number of write requests accepted (Count)
board.memory.mem_ctrl.readBursts            669463349                       # Number of controller read bursts, including those serviced by the write queue (Count)
board.memory.mem_ctrl.writeBursts            74801660                       # Number of controller write bursts, including those merged in the write queue (Count)
board.memory.mem_ctrl.servicedByWrQ           8771320                       # Number of controller read bursts serviced by the write queue (Count)
board.memory.mem_ctrl.mergedWrBursts         57757719                       # Number of controller write bursts merged with an existing one (Count)
board.memory.mem_ctrl.neitherReadNorWriteReqs            0                       # Number of requests that are neither read nor write (Count)
board.memory.mem_ctrl.avgRdQLen                  1.64                       # Average read queue length when enqueuing ((Count/Tick))
board.memory.mem_ctrl.avgWrQLen                 25.91                       # Average write queue length when enqueuing ((Count/Tick))
board.memory.mem_ctrl.numRdRetry                    0                       # Number of times read queue was full causing retry (Count)
board.memory.mem_ctrl.numWrRetry                    0                       # Number of times write queue was full causing retry (Count)
board.memory.mem_ctrl.readPktSize::0         13915915                       # Read request sizes (log2) (Count)
board.memory.mem_ctrl.readPktSize::1           883672                       # Read request sizes (log2) (Count)
board.memory.mem_ctrl.readPktSize::2        583662535                       # Read request sizes (log2) (Count)
board.memory.mem_ctrl.readPktSize::3         71001227                       # Read request sizes (log2) (Count)
board.memory.mem_ctrl.readPktSize::4                0                       # Read request sizes (log2) (Count)
board.memory.mem_ctrl.readPktSize::5                0                       # Read request sizes (log2) (Count)
board.memory.mem_ctrl.readPktSize::6                0                       # Read request sizes (log2) (Count)
board.memory.mem_ctrl.writePktSize::0         4168213                       # Write request sizes (log2) (Count)
board.memory.mem_ctrl.writePktSize::1          483313                       # Write request sizes (log2) (Count)
board.memory.mem_ctrl.writePktSize::2         5516064                       # Write request sizes (log2) (Count)
board.memory.mem_ctrl.writePktSize::3        64634070                       # Write request sizes (log2) (Count)
board.memory.mem_ctrl.writePktSize::4               0                       # Write request sizes (log2) (Count)
board.memory.mem_ctrl.writePktSize::5               0                       # Write request sizes (log2) (Count)
board.memory.mem_ctrl.writePktSize::6               0                       # Write request sizes (log2) (Count)
board.memory.mem_ctrl.rdQLenPdf::0          396123910                       # What read queue length does an incoming req see (Count)
board.memory.mem_ctrl.rdQLenPdf::1          264568119                       # What read queue length does an incoming req see (Count)
board.memory.mem_ctrl.rdQLenPdf::2                  0                       # What read queue length does an incoming req see (Count)
board.memory.mem_ctrl.rdQLenPdf::3                  0                       # What read queue length does an incoming req see (Count)
board.memory.mem_ctrl.rdQLenPdf::4                  0                       # What read queue length does an incoming req see (Count)
board.memory.mem_ctrl.rdQLenPdf::5                  0                       # What read queue length does an incoming req see (Count)
board.memory.mem_ctrl.rdQLenPdf::6                  0                       # What read queue length does an incoming req see (Count)
board.memory.mem_ctrl.rdQLenPdf::7                  0                       # What read queue length does an incoming req see (Count)
board.memory.mem_ctrl.rdQLenPdf::8                  0                       # What read queue length does an incoming req see (Count)
board.memory.mem_ctrl.rdQLenPdf::9                  0                       # What read queue length does an incoming req see (Count)
board.memory.mem_ctrl.rdQLenPdf::10                 0                       # What read queue length does an incoming req see (Count)
board.memory.mem_ctrl.rdQLenPdf::11                 0                       # What read queue length does an incoming req see (Count)
board.memory.mem_ctrl.rdQLenPdf::12                 0                       # What read queue length does an incoming req see (Count)
board.memory.mem_ctrl.rdQLenPdf::13                 0                       # What read queue length does an incoming req see (Count)
board.memory.mem_ctrl.rdQLenPdf::14                 0                       # What read queue length does an incoming req see (Count)
board.memory.mem_ctrl.rdQLenPdf::15                 0                       # What read queue length does an incoming req see (Count)
board.memory.mem_ctrl.rdQLenPdf::16                 0                       # What read queue length does an incoming req see (Count)
board.memory.mem_ctrl.rdQLenPdf::17                 0                       # What read queue length does an incoming req see (Count)
board.memory.mem_ctrl.rdQLenPdf::18                 0                       # What read queue length does an incoming req see (Count)
board.memory.mem_ctrl.rdQLenPdf::19                 0                       # What read queue length does an incoming req see (Count)
board.memory.mem_ctrl.rdQLenPdf::20                 0                       # What read queue length does an incoming req see (Count)
board.memory.mem_ctrl.rdQLenPdf::21                 0                       # What read queue length does an incoming req see (Count)
board.memory.mem_ctrl.rdQLenPdf::22                 0                       # What read queue length does an incoming req see (Count)
board.memory.mem_ctrl.rdQLenPdf::23                 0                       # What read queue length does an incoming req see (Count)
board.memory.mem_ctrl.rdQLenPdf::24                 0                       # What read queue length does an incoming req see (Count)
board.memory.mem_ctrl.rdQLenPdf::25                 0                       # What read queue length does an incoming req see (Count)
board.memory.mem_ctrl.rdQLenPdf::26                 0                       # What read queue length does an incoming req see (Count)
board.memory.mem_ctrl.rdQLenPdf::27                 0                       # What read queue length does an incoming req see (Count)
board.memory.mem_ctrl.rdQLenPdf::28                 0                       # What read queue length does an incoming req see (Count)
board.memory.mem_ctrl.rdQLenPdf::29                 0                       # What read queue length does an incoming req see (Count)
board.memory.mem_ctrl.rdQLenPdf::30                 0                       # What read queue length does an incoming req see (Count)
board.memory.mem_ctrl.rdQLenPdf::31                 0                       # What read queue length does an incoming req see (Count)
board.memory.mem_ctrl.wrQLenPdf::0                  0                       # What write queue length does an incoming req see (Count)
board.memory.mem_ctrl.wrQLenPdf::1                  0                       # What write queue length does an incoming req see (Count)
board.memory.mem_ctrl.wrQLenPdf::2                  0                       # What write queue length does an incoming req see (Count)
board.memory.mem_ctrl.wrQLenPdf::3                  0                       # What write queue length does an incoming req see (Count)
board.memory.mem_ctrl.wrQLenPdf::4                  0                       # What write queue length does an incoming req see (Count)
board.memory.mem_ctrl.wrQLenPdf::5                  0                       # What write queue length does an incoming req see (Count)
board.memory.mem_ctrl.wrQLenPdf::6                  0                       # What write queue length does an incoming req see (Count)
board.memory.mem_ctrl.wrQLenPdf::7                  0                       # What write queue length does an incoming req see (Count)
board.memory.mem_ctrl.wrQLenPdf::8                  0                       # What write queue length does an incoming req see (Count)
board.memory.mem_ctrl.wrQLenPdf::9                  0                       # What write queue length does an incoming req see (Count)
board.memory.mem_ctrl.wrQLenPdf::10                 0                       # What write queue length does an incoming req see (Count)
board.memory.mem_ctrl.wrQLenPdf::11                 0                       # What write queue length does an incoming req see (Count)
board.memory.mem_ctrl.wrQLenPdf::12                 0                       # What write queue length does an incoming req see (Count)
board.memory.mem_ctrl.wrQLenPdf::13                 0                       # What write queue length does an incoming req see (Count)
board.memory.mem_ctrl.wrQLenPdf::14                 0                       # What write queue length does an incoming req see (Count)
board.memory.mem_ctrl.wrQLenPdf::15               155                       # What write queue length does an incoming req see (Count)
board.memory.mem_ctrl.wrQLenPdf::16               358                       # What write queue length does an incoming req see (Count)
board.memory.mem_ctrl.wrQLenPdf::17           1017851                       # What write queue length does an incoming req see (Count)
board.memory.mem_ctrl.wrQLenPdf::18           1065178                       # What write queue length does an incoming req see (Count)
board.memory.mem_ctrl.wrQLenPdf::19           1077943                       # What write queue length does an incoming req see (Count)
board.memory.mem_ctrl.wrQLenPdf::20           1071744                       # What write queue length does an incoming req see (Count)
board.memory.mem_ctrl.wrQLenPdf::21           1070178                       # What write queue length does an incoming req see (Count)
board.memory.mem_ctrl.wrQLenPdf::22           1069563                       # What write queue length does an incoming req see (Count)
board.memory.mem_ctrl.wrQLenPdf::23           1068703                       # What write queue length does an incoming req see (Count)
board.memory.mem_ctrl.wrQLenPdf::24           1069559                       # What write queue length does an incoming req see (Count)
board.memory.mem_ctrl.wrQLenPdf::25           1070056                       # What write queue length does an incoming req see (Count)
board.memory.mem_ctrl.wrQLenPdf::26           1069450                       # What write queue length does an incoming req see (Count)
board.memory.mem_ctrl.wrQLenPdf::27           1066118                       # What write queue length does an incoming req see (Count)
board.memory.mem_ctrl.wrQLenPdf::28           1065893                       # What write queue length does an incoming req see (Count)
board.memory.mem_ctrl.wrQLenPdf::29           1065541                       # What write queue length does an incoming req see (Count)
board.memory.mem_ctrl.wrQLenPdf::30           1065195                       # What write queue length does an incoming req see (Count)
board.memory.mem_ctrl.wrQLenPdf::31           1065194                       # What write queue length does an incoming req see (Count)
board.memory.mem_ctrl.wrQLenPdf::32           1065194                       # What write queue length does an incoming req see (Count)
board.memory.mem_ctrl.wrQLenPdf::33                68                       # What write queue length does an incoming req see (Count)
board.memory.mem_ctrl.wrQLenPdf::34                 0                       # What write queue length does an incoming req see (Count)
board.memory.mem_ctrl.wrQLenPdf::35                 0                       # What write queue length does an incoming req see (Count)
board.memory.mem_ctrl.wrQLenPdf::36                 0                       # What write queue length does an incoming req see (Count)
board.memory.mem_ctrl.wrQLenPdf::37                 0                       # What write queue length does an incoming req see (Count)
board.memory.mem_ctrl.wrQLenPdf::38                 0                       # What write queue length does an incoming req see (Count)
board.memory.mem_ctrl.wrQLenPdf::39                 0                       # What write queue length does an incoming req see (Count)
board.memory.mem_ctrl.wrQLenPdf::40                 0                       # What write queue length does an incoming req see (Count)
board.memory.mem_ctrl.wrQLenPdf::41                 0                       # What write queue length does an incoming req see (Count)
board.memory.mem_ctrl.wrQLenPdf::42                 0                       # What write queue length does an incoming req see (Count)
board.memory.mem_ctrl.wrQLenPdf::43                 0                       # What write queue length does an incoming req see (Count)
board.memory.mem_ctrl.wrQLenPdf::44                 0                       # What write queue length does an incoming req see (Count)
board.memory.mem_ctrl.wrQLenPdf::45                 0                       # What write queue length does an incoming req see (Count)
board.memory.mem_ctrl.wrQLenPdf::46                 0                       # What write queue length does an incoming req see (Count)
board.memory.mem_ctrl.wrQLenPdf::47                 0                       # What write queue length does an incoming req see (Count)
board.memory.mem_ctrl.wrQLenPdf::48                 0                       # What write queue length does an incoming req see (Count)
board.memory.mem_ctrl.wrQLenPdf::49                 0                       # What write queue length does an incoming req see (Count)
board.memory.mem_ctrl.wrQLenPdf::50                 0                       # What write queue length does an incoming req see (Count)
board.memory.mem_ctrl.wrQLenPdf::51                 0                       # What write queue length does an incoming req see (Count)
board.memory.mem_ctrl.wrQLenPdf::52                 0                       # What write queue length does an incoming req see (Count)
board.memory.mem_ctrl.wrQLenPdf::53                 0                       # What write queue length does an incoming req see (Count)
board.memory.mem_ctrl.wrQLenPdf::54                 0                       # What write queue length does an incoming req see (Count)
board.memory.mem_ctrl.wrQLenPdf::55                 0                       # What write queue length does an incoming req see (Count)
board.memory.mem_ctrl.wrQLenPdf::56                 0                       # What write queue length does an incoming req see (Count)
board.memory.mem_ctrl.wrQLenPdf::57                 0                       # What write queue length does an incoming req see (Count)
board.memory.mem_ctrl.wrQLenPdf::58                 0                       # What write queue length does an incoming req see (Count)
board.memory.mem_ctrl.wrQLenPdf::59                 0                       # What write queue length does an incoming req see (Count)
board.memory.mem_ctrl.wrQLenPdf::60                 0                       # What write queue length does an incoming req see (Count)
board.memory.mem_ctrl.wrQLenPdf::61                 0                       # What write queue length does an incoming req see (Count)
board.memory.mem_ctrl.wrQLenPdf::62                 0                       # What write queue length does an incoming req see (Count)
board.memory.mem_ctrl.wrQLenPdf::63                 0                       # What write queue length does an incoming req see (Count)
board.memory.mem_ctrl.rdPerTurnAround::samples      1065194                       # Reads before turning the bus around for writes (Count)
board.memory.mem_ctrl.rdPerTurnAround::mean   620.256655                       # Reads before turning the bus around for writes (Count)
board.memory.mem_ctrl.rdPerTurnAround::gmean   566.446307                       # Reads before turning the bus around for writes (Count)
board.memory.mem_ctrl.rdPerTurnAround::stdev   281.571236                       # Reads before turning the bus around for writes (Count)
board.memory.mem_ctrl.rdPerTurnAround::0-1023       965254     90.62%     90.62% # Reads before turning the bus around for writes (Count)
board.memory.mem_ctrl.rdPerTurnAround::1024-2047        99148      9.31%     99.93% # Reads before turning the bus around for writes (Count)
board.memory.mem_ctrl.rdPerTurnAround::2048-3071          714      0.07%     99.99% # Reads before turning the bus around for writes (Count)
board.memory.mem_ctrl.rdPerTurnAround::3072-4095           61      0.01%    100.00% # Reads before turning the bus around for writes (Count)
board.memory.mem_ctrl.rdPerTurnAround::4096-5119            9      0.00%    100.00% # Reads before turning the bus around for writes (Count)
board.memory.mem_ctrl.rdPerTurnAround::5120-6143            4      0.00%    100.00% # Reads before turning the bus around for writes (Count)
board.memory.mem_ctrl.rdPerTurnAround::6144-7167            3      0.00%    100.00% # Reads before turning the bus around for writes (Count)
board.memory.mem_ctrl.rdPerTurnAround::18432-19455            1      0.00%    100.00% # Reads before turning the bus around for writes (Count)
board.memory.mem_ctrl.rdPerTurnAround::total      1065194                       # Reads before turning the bus around for writes (Count)
board.memory.mem_ctrl.wrPerTurnAround::samples      1065194                       # Writes before turning the bus around for reads (Count)
board.memory.mem_ctrl.wrPerTurnAround::mean    16.000784                       # Writes before turning the bus around for reads (Count)
board.memory.mem_ctrl.wrPerTurnAround::gmean    16.000739                       # Writes before turning the bus around for reads (Count)
board.memory.mem_ctrl.wrPerTurnAround::stdev     0.039242                       # Writes before turning the bus around for reads (Count)
board.memory.mem_ctrl.wrPerTurnAround::16      1064753     99.96%     99.96% # Writes before turning the bus around for reads (Count)
board.memory.mem_ctrl.wrPerTurnAround::17           56      0.01%     99.96% # Writes before turning the bus around for reads (Count)
board.memory.mem_ctrl.wrPerTurnAround::18          376      0.04%    100.00% # Writes before turning the bus around for reads (Count)
board.memory.mem_ctrl.wrPerTurnAround::19            9      0.00%    100.00% # Writes before turning the bus around for reads (Count)
board.memory.mem_ctrl.wrPerTurnAround::total      1065194                       # Writes before turning the bus around for reads (Count)
board.memory.mem_ctrl.bytesReadWrQ          561364480                       # Total number of bytes read from write queue (Byte)
board.memory.mem_ctrl.bytesReadSys         2918343215                       # Total read bytes from the system interface side (Byte)
board.memory.mem_ctrl.bytesWrittenSys       544271655                       # Total written bytes from the system interface side (Byte)
board.memory.mem_ctrl.avgRdBWSys         151895992.15182275                       # Average system read bandwidth in Byte/s ((Byte/Second))
board.memory.mem_ctrl.avgWrBWSys         28328636.12868083                       # Average system write bandwidth in Byte/s ((Byte/Second))
board.memory.mem_ctrl.totGap             19212772988000                       # Total gap between requests (Tick)
board.memory.mem_ctrl.avgGap                 25814.42                       # Average gap between requests ((Tick/Count))
board.memory.mem_ctrl.requestorReadBytes::processor.cores0.core.mmu.dtb.walker          992                       # Per-requestor bytes read from memory (Byte)
board.memory.mem_ctrl.requestorReadBytes::processor.cores0.core.mmu.itb.walker          744                       # Per-requestor bytes read from memory (Byte)
board.memory.mem_ctrl.requestorReadBytes::processor.cores0.core.inst   1138874696                       # Per-requestor bytes read from memory (Byte)
board.memory.mem_ctrl.requestorReadBytes::processor.cores0.core.data    300389076                       # Per-requestor bytes read from memory (Byte)
board.memory.mem_ctrl.requestorReadBytes::processor.cores1.core.mmu.dtb.walker          472                       # Per-requestor bytes read from memory (Byte)
board.memory.mem_ctrl.requestorReadBytes::processor.cores1.core.mmu.itb.walker          240                       # Per-requestor bytes read from memory (Byte)
board.memory.mem_ctrl.requestorReadBytes::processor.cores1.core.inst   1147665968                       # Per-requestor bytes read from memory (Byte)
board.memory.mem_ctrl.requestorReadBytes::processor.cores1.core.data    269991216                       # Per-requestor bytes read from memory (Byte)
board.memory.mem_ctrl.requestorWriteBytes::processor.cores0.core.data     63007860                       # Per-requestor bytes write to memory (Byte)
board.memory.mem_ctrl.requestorWriteBytes::processor.cores1.core.data     61445002                       # Per-requestor bytes write to memory (Byte)
board.memory.mem_ctrl.requestorReadRate::processor.cores0.core.mmu.dtb.walker 51.632317761709                       # Per-requestor bytes read from memory rate ((Byte/Second))
board.memory.mem_ctrl.requestorReadRate::processor.cores0.core.mmu.itb.walker 38.724238321282                       # Per-requestor bytes read from memory rate ((Byte/Second))
board.memory.mem_ctrl.requestorReadRate::processor.cores0.core.inst 59276955.841372996569                       # Per-requestor bytes read from memory rate ((Byte/Second))
board.memory.mem_ctrl.requestorReadRate::processor.cores0.core.data 15634863.129211923108                       # Per-requestor bytes read from memory rate ((Byte/Second))
board.memory.mem_ctrl.requestorReadRate::processor.cores1.core.mmu.dtb.walker 24.566989902749                       # Per-requestor bytes read from memory rate ((Byte/Second))
board.memory.mem_ctrl.requestorReadRate::processor.cores1.core.mmu.itb.walker 12.491689781059                       # Per-requestor bytes read from memory rate ((Byte/Second))
board.memory.mem_ctrl.requestorReadRate::processor.cores1.core.inst 59734530.185560114682                       # Per-requestor bytes read from memory rate ((Byte/Second))
board.memory.mem_ctrl.requestorReadRate::processor.cores1.core.data 14052693.807845037431                       # Per-requestor bytes read from memory rate ((Byte/Second))
board.memory.mem_ctrl.requestorWriteRate::processor.cores0.core.data 3279477.670368235093                       # Per-requestor bytes write to memory rate ((Byte/Second))
board.memory.mem_ctrl.requestorWriteRate::processor.cores1.core.data 3198132.931585544255                       # Per-requestor bytes write to memory rate ((Byte/Second))
board.memory.mem_ctrl.requestorReadAccesses::processor.cores0.core.mmu.dtb.walker          130                       # Per-requestor read serviced memory accesses (Count)
board.memory.mem_ctrl.requestorReadAccesses::processor.cores0.core.mmu.itb.walker           93                       # Per-requestor read serviced memory accesses (Count)
board.memory.mem_ctrl.requestorReadAccesses::processor.cores0.core.inst    284718674                       # Per-requestor read serviced memory accesses (Count)
board.memory.mem_ctrl.requestorReadAccesses::processor.cores0.core.data     49824175                       # Per-requestor read serviced memory accesses (Count)
board.memory.mem_ctrl.requestorReadAccesses::processor.cores1.core.mmu.dtb.walker           66                       # Per-requestor read serviced memory accesses (Count)
board.memory.mem_ctrl.requestorReadAccesses::processor.cores1.core.mmu.itb.walker           30                       # Per-requestor read serviced memory accesses (Count)
board.memory.mem_ctrl.requestorReadAccesses::processor.cores1.core.inst    286916492                       # Per-requestor read serviced memory accesses (Count)
board.memory.mem_ctrl.requestorReadAccesses::processor.cores1.core.data     48003689                       # Per-requestor read serviced memory accesses (Count)
board.memory.mem_ctrl.requestorWriteAccesses::processor.cores0.core.data     39132969                       # Per-requestor write serviced memory accesses (Count)
board.memory.mem_ctrl.requestorWriteAccesses::processor.cores1.core.data     35668691                       # Per-requestor write serviced memory accesses (Count)
board.memory.mem_ctrl.requestorReadTotalLat::processor.cores0.core.mmu.dtb.walker      4472500                       # Per-requestor read total memory access latency (Tick)
board.memory.mem_ctrl.requestorReadTotalLat::processor.cores0.core.mmu.itb.walker      2840000                       # Per-requestor read total memory access latency (Tick)
board.memory.mem_ctrl.requestorReadTotalLat::processor.cores0.core.inst 7014400557250                       # Per-requestor read total memory access latency (Tick)
board.memory.mem_ctrl.requestorReadTotalLat::processor.cores0.core.data 1282891486250                       # Per-requestor read total memory access latency (Tick)
board.memory.mem_ctrl.requestorReadTotalLat::processor.cores1.core.mmu.dtb.walker      2513000                       # Per-requestor read total memory access latency (Tick)
board.memory.mem_ctrl.requestorReadTotalLat::processor.cores1.core.mmu.itb.walker       988750                       # Per-requestor read total memory access latency (Tick)
board.memory.mem_ctrl.requestorReadTotalLat::processor.cores1.core.inst 7047374777250                       # Per-requestor read total memory access latency (Tick)
board.memory.mem_ctrl.requestorReadTotalLat::processor.cores1.core.data 1305511017250                       # Per-requestor read total memory access latency (Tick)
board.memory.mem_ctrl.requestorWriteTotalLat::processor.cores0.core.data 264597834840250                       # Per-requestor write total memory access latency (Tick)
board.memory.mem_ctrl.requestorWriteTotalLat::processor.cores1.core.data 221128795093000                       # Per-requestor write total memory access latency (Tick)
board.memory.mem_ctrl.requestorReadAvgLat::processor.cores0.core.mmu.dtb.walker     34403.85                       # Per-requestor read average memory access latency ((Tick/Count))
board.memory.mem_ctrl.requestorReadAvgLat::processor.cores0.core.mmu.itb.walker     30537.63                       # Per-requestor read average memory access latency ((Tick/Count))
board.memory.mem_ctrl.requestorReadAvgLat::processor.cores0.core.inst     24636.25                       # Per-requestor read average memory access latency ((Tick/Count))
board.memory.mem_ctrl.requestorReadAvgLat::processor.cores0.core.data     25748.37                       # Per-requestor read average memory access latency ((Tick/Count))
board.memory.mem_ctrl.requestorReadAvgLat::processor.cores1.core.mmu.dtb.walker     38075.76                       # Per-requestor read average memory access latency ((Tick/Count))
board.memory.mem_ctrl.requestorReadAvgLat::processor.cores1.core.mmu.itb.walker     32958.33                       # Per-requestor read average memory access latency ((Tick/Count))
board.memory.mem_ctrl.requestorReadAvgLat::processor.cores1.core.inst     24562.46                       # Per-requestor read average memory access latency ((Tick/Count))
board.memory.mem_ctrl.requestorReadAvgLat::processor.cores1.core.data     27196.06                       # Per-requestor read average memory access latency ((Tick/Count))
board.memory.mem_ctrl.requestorWriteAvgLat::processor.cores0.core.data   6761506.77                       # Per-requestor write average memory access latency ((Tick/Count))
board.memory.mem_ctrl.requestorWriteAvgLat::processor.cores1.core.data   6199520.89                       # Per-requestor write average memory access latency ((Tick/Count))
board.memory.mem_ctrl.dram.bytesRead::processor.cores0.core.mmu.dtb.walker         1040                       # Number of bytes read from this memory (Byte)
board.memory.mem_ctrl.dram.bytesRead::processor.cores0.core.mmu.itb.walker          744                       # Number of bytes read from this memory (Byte)
board.memory.mem_ctrl.dram.bytesRead::processor.cores0.core.inst   1138874692                       # Number of bytes read from this memory (Byte)
board.memory.mem_ctrl.dram.bytesRead::processor.cores0.core.data    333481724                       # Number of bytes read from this memory (Byte)
board.memory.mem_ctrl.dram.bytesRead::processor.cores1.core.mmu.dtb.walker          528                       # Number of bytes read from this memory (Byte)
board.memory.mem_ctrl.dram.bytesRead::processor.cores1.core.mmu.itb.walker          240                       # Number of bytes read from this memory (Byte)
board.memory.mem_ctrl.dram.bytesRead::processor.cores1.core.inst   1147665968                       # Number of bytes read from this memory (Byte)
board.memory.mem_ctrl.dram.bytesRead::processor.cores1.core.data    298318275                       # Number of bytes read from this memory (Byte)
board.memory.mem_ctrl.dram.bytesRead::total   2918343211                       # Number of bytes read from this memory (Byte)
board.memory.mem_ctrl.dram.bytesInstRead::processor.cores0.core.inst   1138874692                       # Number of instructions bytes read from this memory (Byte)
board.memory.mem_ctrl.dram.bytesInstRead::processor.cores1.core.inst   1147665968                       # Number of instructions bytes read from this memory (Byte)
board.memory.mem_ctrl.dram.bytesInstRead::total   2286540660                       # Number of instructions bytes read from this memory (Byte)
board.memory.mem_ctrl.dram.bytesWritten::processor.cores0.core.data    288146627                       # Number of bytes written to this memory (Byte)
board.memory.mem_ctrl.dram.bytesWritten::processor.cores1.core.data    251627696                       # Number of bytes written to this memory (Byte)
board.memory.mem_ctrl.dram.bytesWritten::total    539774323                       # Number of bytes written to this memory (Byte)
board.memory.mem_ctrl.dram.numReads::processor.cores0.core.mmu.dtb.walker          130                       # Number of read requests responded to by this memory (Count)
board.memory.mem_ctrl.dram.numReads::processor.cores0.core.mmu.itb.walker           93                       # Number of read requests responded to by this memory (Count)
board.memory.mem_ctrl.dram.numReads::processor.cores0.core.inst    284718673                       # Number of read requests responded to by this memory (Count)
board.memory.mem_ctrl.dram.numReads::processor.cores0.core.data     49824175                       # Number of read requests responded to by this memory (Count)
board.memory.mem_ctrl.dram.numReads::processor.cores1.core.mmu.dtb.walker           66                       # Number of read requests responded to by this memory (Count)
board.memory.mem_ctrl.dram.numReads::processor.cores1.core.mmu.itb.walker           30                       # Number of read requests responded to by this memory (Count)
board.memory.mem_ctrl.dram.numReads::processor.cores1.core.inst    286916492                       # Number of read requests responded to by this memory (Count)
board.memory.mem_ctrl.dram.numReads::processor.cores1.core.data     48003689                       # Number of read requests responded to by this memory (Count)
board.memory.mem_ctrl.dram.numReads::total    669463348                       # Number of read requests responded to by this memory (Count)
board.memory.mem_ctrl.dram.numWrites::processor.cores0.core.data     38671000                       # Number of write requests responded to by this memory (Count)
board.memory.mem_ctrl.dram.numWrites::processor.cores1.core.data     35007031                       # Number of write requests responded to by this memory (Count)
board.memory.mem_ctrl.dram.numWrites::total     73678031                       # Number of write requests responded to by this memory (Count)
board.memory.mem_ctrl.dram.bwRead::processor.cores0.core.mmu.dtb.walker           54                       # Total read bandwidth from this memory ((Byte/Second))
board.memory.mem_ctrl.dram.bwRead::processor.cores0.core.mmu.itb.walker           39                       # Total read bandwidth from this memory ((Byte/Second))
board.memory.mem_ctrl.dram.bwRead::processor.cores0.core.inst     59276956                       # Total read bandwidth from this memory ((Byte/Second))
board.memory.mem_ctrl.dram.bwRead::processor.cores0.core.data     17357293                       # Total read bandwidth from this memory ((Byte/Second))
board.memory.mem_ctrl.dram.bwRead::processor.cores1.core.mmu.dtb.walker           27                       # Total read bandwidth from this memory ((Byte/Second))
board.memory.mem_ctrl.dram.bwRead::processor.cores1.core.mmu.itb.walker           12                       # Total read bandwidth from this memory ((Byte/Second))
board.memory.mem_ctrl.dram.bwRead::processor.cores1.core.inst     59734530                       # Total read bandwidth from this memory ((Byte/Second))
board.memory.mem_ctrl.dram.bwRead::processor.cores1.core.data     15527081                       # Total read bandwidth from this memory ((Byte/Second))
board.memory.mem_ctrl.dram.bwRead::total    151895992                       # Total read bandwidth from this memory ((Byte/Second))
board.memory.mem_ctrl.dram.bwInstRead::processor.cores0.core.inst     59276956                       # Instruction read bandwidth from this memory ((Byte/Second))
board.memory.mem_ctrl.dram.bwInstRead::processor.cores1.core.inst     59734530                       # Instruction read bandwidth from this memory ((Byte/Second))
board.memory.mem_ctrl.dram.bwInstRead::total    119011486                       # Instruction read bandwidth from this memory ((Byte/Second))
board.memory.mem_ctrl.dram.bwWrite::processor.cores0.core.data     14997659                       # Write bandwidth from this memory ((Byte/Second))
board.memory.mem_ctrl.dram.bwWrite::processor.cores1.core.data     13096896                       # Write bandwidth from this memory ((Byte/Second))
board.memory.mem_ctrl.dram.bwWrite::total     28094556                       # Write bandwidth from this memory ((Byte/Second))
board.memory.mem_ctrl.dram.bwTotal::processor.cores0.core.mmu.dtb.walker           54                       # Total bandwidth to/from this memory ((Byte/Second))
board.memory.mem_ctrl.dram.bwTotal::processor.cores0.core.mmu.itb.walker           39                       # Total bandwidth to/from this memory ((Byte/Second))
board.memory.mem_ctrl.dram.bwTotal::processor.cores0.core.inst     59276956                       # Total bandwidth to/from this memory ((Byte/Second))
board.memory.mem_ctrl.dram.bwTotal::processor.cores0.core.data     32354952                       # Total bandwidth to/from this memory ((Byte/Second))
board.memory.mem_ctrl.dram.bwTotal::processor.cores1.core.mmu.dtb.walker           27                       # Total bandwidth to/from this memory ((Byte/Second))
board.memory.mem_ctrl.dram.bwTotal::processor.cores1.core.mmu.itb.walker           12                       # Total bandwidth to/from this memory ((Byte/Second))
board.memory.mem_ctrl.dram.bwTotal::processor.cores1.core.inst     59734530                       # Total bandwidth to/from this memory ((Byte/Second))
board.memory.mem_ctrl.dram.bwTotal::processor.cores1.core.data     28623977                       # Total bandwidth to/from this memory ((Byte/Second))
board.memory.mem_ctrl.dram.bwTotal::total    179990548                       # Total bandwidth to/from this memory ((Byte/Second))
board.memory.mem_ctrl.dram.readBursts       660692029                       # Number of DRAM read bursts (Count)
board.memory.mem_ctrl.dram.writeBursts       17043939                       # Number of DRAM write bursts (Count)
board.memory.mem_ctrl.dram.perBankRdBursts::0     44663816                       # Per bank write bursts (Count)
board.memory.mem_ctrl.dram.perBankRdBursts::1     13207979                       # Per bank write bursts (Count)
board.memory.mem_ctrl.dram.perBankRdBursts::2      7758996                       # Per bank write bursts (Count)
board.memory.mem_ctrl.dram.perBankRdBursts::3    148694460                       # Per bank write bursts (Count)
board.memory.mem_ctrl.dram.perBankRdBursts::4    142650800                       # Per bank write bursts (Count)
board.memory.mem_ctrl.dram.perBankRdBursts::5      3476392                       # Per bank write bursts (Count)
board.memory.mem_ctrl.dram.perBankRdBursts::6      9581013                       # Per bank write bursts (Count)
board.memory.mem_ctrl.dram.perBankRdBursts::7     13458240                       # Per bank write bursts (Count)
board.memory.mem_ctrl.dram.perBankRdBursts::8      4398826                       # Per bank write bursts (Count)
board.memory.mem_ctrl.dram.perBankRdBursts::9     19607082                       # Per bank write bursts (Count)
board.memory.mem_ctrl.dram.perBankRdBursts::10     86494364                       # Per bank write bursts (Count)
board.memory.mem_ctrl.dram.perBankRdBursts::11    102972405                       # Per bank write bursts (Count)
board.memory.mem_ctrl.dram.perBankRdBursts::12     18661717                       # Per bank write bursts (Count)
board.memory.mem_ctrl.dram.perBankRdBursts::13      5118065                       # Per bank write bursts (Count)
board.memory.mem_ctrl.dram.perBankRdBursts::14     23068983                       # Per bank write bursts (Count)
board.memory.mem_ctrl.dram.perBankRdBursts::15     16878891                       # Per bank write bursts (Count)
board.memory.mem_ctrl.dram.perBankWrBursts::0         1234                       # Per bank write bursts (Count)
board.memory.mem_ctrl.dram.perBankWrBursts::1      2380742                       # Per bank write bursts (Count)
board.memory.mem_ctrl.dram.perBankWrBursts::2       897858                       # Per bank write bursts (Count)
board.memory.mem_ctrl.dram.perBankWrBursts::3      1456055                       # Per bank write bursts (Count)
board.memory.mem_ctrl.dram.perBankWrBursts::4       321798                       # Per bank write bursts (Count)
board.memory.mem_ctrl.dram.perBankWrBursts::5       308045                       # Per bank write bursts (Count)
board.memory.mem_ctrl.dram.perBankWrBursts::6        14651                       # Per bank write bursts (Count)
board.memory.mem_ctrl.dram.perBankWrBursts::7      1342701                       # Per bank write bursts (Count)
board.memory.mem_ctrl.dram.perBankWrBursts::8      1509484                       # Per bank write bursts (Count)
board.memory.mem_ctrl.dram.perBankWrBursts::9      2219193                       # Per bank write bursts (Count)
board.memory.mem_ctrl.dram.perBankWrBursts::10       633053                       # Per bank write bursts (Count)
board.memory.mem_ctrl.dram.perBankWrBursts::11      3236492                       # Per bank write bursts (Count)
board.memory.mem_ctrl.dram.perBankWrBursts::12      1633574                       # Per bank write bursts (Count)
board.memory.mem_ctrl.dram.perBankWrBursts::13        94691                       # Per bank write bursts (Count)
board.memory.mem_ctrl.dram.perBankWrBursts::14       992610                       # Per bank write bursts (Count)
board.memory.mem_ctrl.dram.perBankWrBursts::15         1758                       # Per bank write bursts (Count)
board.memory.mem_ctrl.dram.totQLat       4262213108500                       # Total ticks spent queuing (Tick)
board.memory.mem_ctrl.dram.totBusLat     3303460145000                       # Total ticks spent in databus transfers (Tick)
board.memory.mem_ctrl.dram.totMemAccLat  16650188652250                       # Total ticks spent from burst creation until serviced by the DRAM (Tick)
board.memory.mem_ctrl.dram.avgQLat            6451.13                       # Average queueing delay per DRAM burst ((Tick/Count))
board.memory.mem_ctrl.dram.avgBusLat          5000.00                       # Average bus latency per DRAM burst ((Tick/Count))
board.memory.mem_ctrl.dram.avgMemAccLat      25201.13                       # Average memory access latency per DRAM burst ((Tick/Count))
board.memory.mem_ctrl.dram.readRowHits      564944999                       # Number of row buffer hits during reads (Count)
board.memory.mem_ctrl.dram.writeRowHits      14140066                       # Number of row buffer hits during writes (Count)
board.memory.mem_ctrl.dram.readRowHitRate        85.51                       # Row buffer hit rate for reads (Ratio)
board.memory.mem_ctrl.dram.writeRowHitRate        82.96                       # Row buffer hit rate for writes (Ratio)
board.memory.mem_ctrl.dram.bytesPerActivate::samples     98650905                       # Bytes accessed per row activation (Byte)
board.memory.mem_ctrl.dram.bytesPerActivate::mean   439.682767                       # Bytes accessed per row activation (Byte)
board.memory.mem_ctrl.dram.bytesPerActivate::gmean   240.312190                       # Bytes accessed per row activation (Byte)
board.memory.mem_ctrl.dram.bytesPerActivate::stdev   408.359548                       # Bytes accessed per row activation (Byte)
board.memory.mem_ctrl.dram.bytesPerActivate::0-127     36333593     36.83%     36.83% # Bytes accessed per row activation (Byte)
board.memory.mem_ctrl.dram.bytesPerActivate::128-255     12853393     13.03%     49.86% # Bytes accessed per row activation (Byte)
board.memory.mem_ctrl.dram.bytesPerActivate::256-383      6164318      6.25%     56.11% # Bytes accessed per row activation (Byte)
board.memory.mem_ctrl.dram.bytesPerActivate::384-511      5493234      5.57%     61.68% # Bytes accessed per row activation (Byte)
board.memory.mem_ctrl.dram.bytesPerActivate::512-639      3779464      3.83%     65.51% # Bytes accessed per row activation (Byte)
board.memory.mem_ctrl.dram.bytesPerActivate::640-767      2947352      2.99%     68.50% # Bytes accessed per row activation (Byte)
board.memory.mem_ctrl.dram.bytesPerActivate::768-895      2622693      2.66%     71.15% # Bytes accessed per row activation (Byte)
board.memory.mem_ctrl.dram.bytesPerActivate::896-1023      1776038      1.80%     72.95% # Bytes accessed per row activation (Byte)
board.memory.mem_ctrl.dram.bytesPerActivate::1024-1151     26680820     27.05%    100.00% # Bytes accessed per row activation (Byte)
board.memory.mem_ctrl.dram.bytesPerActivate::total     98650905                       # Bytes accessed per row activation (Byte)
board.memory.mem_ctrl.dram.bytesRead      42284289856                       # Total bytes read (Byte)
board.memory.mem_ctrl.dram.bytesWritten    1090812096                       # Total bytes written (Byte)
board.memory.mem_ctrl.dram.avgRdBW        2200.842631                       # Average DRAM read bandwidth in MiBytes/s ((Byte/Second))
board.memory.mem_ctrl.dram.avgWrBW          56.775360                       # Average DRAM write bandwidth in MiBytes/s ((Byte/Second))
board.memory.mem_ctrl.dram.peakBW            12800.00                       # Theoretical peak bandwidth in MiByte/s ((Byte/Second))
board.memory.mem_ctrl.dram.busUtil              17.64                       # Data bus utilization in percentage (Ratio)
board.memory.mem_ctrl.dram.busUtilRead          17.19                       # Data bus utilization in percentage for reads (Ratio)
board.memory.mem_ctrl.dram.busUtilWrite          0.44                       # Data bus utilization in percentage for writes (Ratio)
board.memory.mem_ctrl.dram.pageHitRate          85.44                       # Row buffer hit rate, read and write combined (Ratio)
board.memory.mem_ctrl.dram.power_state.pwrStateResidencyTicks::UNDEFINED 126433695432000                       # Cumulative time (in ticks) in various power states (Tick)
board.memory.mem_ctrl.dram.rank0.actEnergy 386897843220                       # Energy for activate commands per rank (pJ) (Joule)
board.memory.mem_ctrl.dram.rank0.preEnergy 205641065355                       # Energy for precharge commands per rank (pJ) (Joule)
board.memory.mem_ctrl.dram.rank0.readEnergy 2738131694760                       # Energy for read commands per rank (pJ) (Joule)
board.memory.mem_ctrl.dram.rank0.writeEnergy  35094498480                       # Energy for write commands per rank (pJ) (Joule)
board.memory.mem_ctrl.dram.rank0.refreshEnergy 1516640180640.000244                       # Energy for refresh commands per rank (pJ) (Joule)
board.memory.mem_ctrl.dram.rank0.actBackEnergy 8549006712300                       # Energy for active background per rank (pJ) (Joule)
board.memory.mem_ctrl.dram.rank0.preBackEnergy 178544042880                       # Energy for precharge background per rank (pJ) (Joule)
board.memory.mem_ctrl.dram.rank0.actPowerDownEnergy            0                       # Energy for active power-down per rank (pJ) (Joule)
board.memory.mem_ctrl.dram.rank0.prePowerDownEnergy            0                       # Energy for precharge power-down per rank (pJ) (Joule)
board.memory.mem_ctrl.dram.rank0.selfRefreshEnergy            0                       # Energy for self refresh per rank (pJ) (Joule)
board.memory.mem_ctrl.dram.rank0.totalEnergy 13609956037635                       # Total energy per rank (pJ) (Joule)
board.memory.mem_ctrl.dram.rank0.averagePower   708.380620                       # Core power per rank (mW) (Watt)
board.memory.mem_ctrl.dram.rank0.totalIdleTime            0                       # Total Idle time Per DRAM Rank (Tick)
board.memory.mem_ctrl.dram.rank0.pwrStateTime::IDLE 336558804500                       # Time in different power states (Tick)
board.memory.mem_ctrl.dram.rank0.pwrStateTime::REF 641556760000                       # Time in different power states (Tick)
board.memory.mem_ctrl.dram.rank0.pwrStateTime::SREF            0                       # Time in different power states (Tick)
board.memory.mem_ctrl.dram.rank0.pwrStateTime::PRE_PDN            0                       # Time in different power states (Tick)
board.memory.mem_ctrl.dram.rank0.pwrStateTime::ACT 18234664617500                       # Time in different power states (Tick)
board.memory.mem_ctrl.dram.rank0.pwrStateTime::ACT_PDN            0                       # Time in different power states (Tick)
board.memory.mem_ctrl.dram.rank1.actEnergy 317469697020                       # Energy for activate commands per rank (pJ) (Joule)
board.memory.mem_ctrl.dram.rank1.preEnergy 168739141890                       # Energy for precharge commands per rank (pJ) (Joule)
board.memory.mem_ctrl.dram.rank1.readEnergy 1979210406180                       # Energy for read commands per rank (pJ) (Joule)
board.memory.mem_ctrl.dram.rank1.writeEnergy  53874863100                       # Energy for write commands per rank (pJ) (Joule)
board.memory.mem_ctrl.dram.rank1.refreshEnergy 1516640180640.000244                       # Energy for refresh commands per rank (pJ) (Joule)
board.memory.mem_ctrl.dram.rank1.actBackEnergy 8505017121900                       # Energy for active background per rank (pJ) (Joule)
board.memory.mem_ctrl.dram.rank1.preBackEnergy 215587771200                       # Energy for precharge background per rank (pJ) (Joule)
board.memory.mem_ctrl.dram.rank1.actPowerDownEnergy            0                       # Energy for active power-down per rank (pJ) (Joule)
board.memory.mem_ctrl.dram.rank1.prePowerDownEnergy            0                       # Energy for precharge power-down per rank (pJ) (Joule)
board.memory.mem_ctrl.dram.rank1.selfRefreshEnergy            0                       # Energy for self refresh per rank (pJ) (Joule)
board.memory.mem_ctrl.dram.rank1.totalEnergy 12756539181930                       # Total energy per rank (pJ) (Joule)
board.memory.mem_ctrl.dram.rank1.averagePower   663.961376                       # Core power per rank (mW) (Watt)
board.memory.mem_ctrl.dram.rank1.totalIdleTime            0                       # Total Idle time Per DRAM Rank (Tick)
board.memory.mem_ctrl.dram.rank1.pwrStateTime::IDLE 460299149250                       # Time in different power states (Tick)
board.memory.mem_ctrl.dram.rank1.pwrStateTime::REF 641556760000                       # Time in different power states (Tick)
board.memory.mem_ctrl.dram.rank1.pwrStateTime::SREF            0                       # Time in different power states (Tick)
board.memory.mem_ctrl.dram.rank1.pwrStateTime::PRE_PDN            0                       # Time in different power states (Tick)
board.memory.mem_ctrl.dram.rank1.pwrStateTime::ACT 18110923915750                       # Time in different power states (Tick)
board.memory.mem_ctrl.dram.rank1.pwrStateTime::ACT_PDN            0                       # Time in different power states (Tick)
board.memory.mem_ctrl.power_state.pwrStateResidencyTicks::UNDEFINED 126433695432000                       # Cumulative time (in ticks) in various power states (Tick)
board.platform.clint.power_state.pwrStateResidencyTicks::UNDEFINED 126433695432000                       # Cumulative time (in ticks) in various power states (Tick)
board.platform.pci_host.power_state.pwrStateResidencyTicks::UNDEFINED 126433695432000                       # Cumulative time (in ticks) in various power states (Tick)
board.platform.plic.power_state.pwrStateResidencyTicks::UNDEFINED 126433695432000                       # Cumulative time (in ticks) in various power states (Tick)
board.platform.uart.power_state.pwrStateResidencyTicks::UNDEFINED 126433695432000                       # Cumulative time (in ticks) in various power states (Tick)
board.processor.cores0.core.numCycles     19213473901                       # Number of cpu cycles simulated (Cycle)
board.processor.cores0.core.cpi             82.217831                       # CPI: cycles per instruction (core level) ((Cycle/Count))
board.processor.cores0.core.ipc              0.012163                       # IPC: instructions per cycle (core level) ((Count/Cycle))
board.processor.cores0.core.numWorkItemsStarted            0                       # Number of work items this cpu started (Count)
board.processor.cores0.core.numWorkItemsCompleted            0                       # Number of work items this cpu completed (Count)
board.processor.cores0.core.commitStats0.numInsts    233689866                       # Number of instructions committed (thread level) (Count)
board.processor.cores0.core.commitStats0.numOps    234142950                       # Number of ops (including micro ops) committed (thread level) (Count)
board.processor.cores0.core.commitStats0.numInstsNotNOP            0                       # Number of instructions committed excluding NOPs or prefetches (Count)
board.processor.cores0.core.commitStats0.numOpsNotNOP            0                       # Number of Ops (including micro ops) Simulated (Count)
board.processor.cores0.core.commitStats0.cpi    82.217831                       # CPI: cycles per instruction (thread level) ((Cycle/Count))
board.processor.cores0.core.commitStats0.ipc     0.012163                       # IPC: instructions per cycle (thread level) ((Count/Cycle))
board.processor.cores0.core.commitStats0.numMemRefs            0                       # Number of memory references committed (Count)
board.processor.cores0.core.commitStats0.numFpInsts          268                       # Number of float instructions (Count)
board.processor.cores0.core.commitStats0.numIntInsts    230135020                       # Number of integer instructions (Count)
board.processor.cores0.core.commitStats0.numLoadInsts     49824178                       # Number of load instructions (Count)
board.processor.cores0.core.commitStats0.numStoreInsts     39287248                       # Number of store instructions (Count)
board.processor.cores0.core.commitStats0.numVecInsts            0                       # Number of vector instructions (Count)
board.processor.cores0.core.commitStats0.committedInstType::No_OpClass      3148745      1.34%      1.34% # Class of committed instruction. (Count)
board.processor.cores0.core.commitStats0.committedInstType::IntAlu    141719270     60.53%     61.87% # Class of committed instruction. (Count)
board.processor.cores0.core.commitStats0.committedInstType::IntMult       132623      0.06%     61.93% # Class of committed instruction. (Count)
board.processor.cores0.core.commitStats0.committedInstType::IntDiv        30886      0.01%     61.94% # Class of committed instruction. (Count)
board.processor.cores0.core.commitStats0.committedInstType::FloatAdd            0      0.00%     61.94% # Class of committed instruction. (Count)
board.processor.cores0.core.commitStats0.committedInstType::FloatCmp            0      0.00%     61.94% # Class of committed instruction. (Count)
board.processor.cores0.core.commitStats0.committedInstType::FloatCvt            0      0.00%     61.94% # Class of committed instruction. (Count)
board.processor.cores0.core.commitStats0.committedInstType::FloatMult            0      0.00%     61.94% # Class of committed instruction. (Count)
board.processor.cores0.core.commitStats0.committedInstType::FloatMultAcc            0      0.00%     61.94% # Class of committed instruction. (Count)
board.processor.cores0.core.commitStats0.committedInstType::FloatDiv            0      0.00%     61.94% # Class of committed instruction. (Count)
[...]
board.processor.cores1.core.commitStats0.committedInstType::IntMult       147327      0.06%     63.85% # Class of committed instruction. (Count)
board.processor.cores1.core.commitStats0.committedInstType::IntDiv        30728      0.01%     63.86% # Class of committed instruction. (Count)
board.processor.cores1.core.commitStats0.committedInstType::FloatAdd            0      0.00%     63.86% # Class of committed instruction. (Count)
board.processor.cores1.core.commitStats0.committedInstType::FloatCmp            0      0.00%     63.86% # Class of committed instruction. (Count)
board.processor.cores1.core.commitStats0.committedInstType::FloatCvt            0      0.00%     63.86% # Class of committed instruction. (Count)
board.processor.cores1.core.commitStats0.committedInstType::FloatMult            0      0.00%     63.86% # Class of committed instruction. (Count)
board.processor.cores1.core.commitStats0.committedInstType::FloatMultAcc            0      0.00%     63.86% # Class of committed instruction. (Count)
board.processor.cores1.core.commitStats0.committedInstType::FloatDiv            0      0.00%     63.86% # Class of committed instruction. (Count)
board.processor.cores1.core.commitStats0.committedInstType::FloatMisc            0      0.00%     63.86% # Class of committed instruction. (Count)
board.processor.cores1.core.commitStats0.committedInstType::FloatSqrt            0      0.00%     63.86% # Class of committed instruction. (Count)
board.processor.cores1.core.commitStats0.committedInstType::SimdAdd            0      0.00%     63.86% # Class of committed instruction. (Count)
board.processor.cores1.core.commitStats0.committedInstType::SimdAddAcc            0      0.00%     63.86% # Class of committed instruction. (Count)
board.processor.cores1.core.commitStats0.committedInstType::SimdAlu            0      0.00%     63.86% # Class of committed instruction. (Count)
board.processor.cores1.core.commitStats0.committedInstType::SimdCmp            0      0.00%     63.86% # Class of committed instruction. (Count)
board.processor.cores1.core.commitStats0.committedInstType::SimdCvt            0      0.00%     63.86% # Class of committed instruction. (Count)
board.processor.cores1.core.commitStats0.committedInstType::SimdMisc            0      0.00%     63.86% # Class of committed instruction. (Count)
board.processor.cores1.core.commitStats0.committedInstType::SimdMult            0      0.00%     63.86% # Class of committed instruction. (Count)
board.processor.cores1.core.commitStats0.committedInstType::SimdMultAcc            0      0.00%     63.86% # Class of committed instruction. (Count)
board.processor.cores1.core.commitStats0.committedInstType::SimdMatMultAcc            0      0.00%     63.86% # Class of committed instruction. (Count)
board.processor.cores1.core.commitStats0.committedInstType::SimdShift            0      0.00%     63.86% # Class of committed instruction. (Count)
board.processor.cores1.core.commitStats0.committedInstType::SimdShiftAcc            0      0.00%     63.86% # Class of committed instruction. (Count)
board.processor.cores1.core.commitStats0.committedInstType::SimdDiv            0      0.00%     63.86% # Class of committed instruction. (Count)
board.processor.cores1.core.commitStats0.committedInstType::SimdSqrt            0      0.00%     63.86% # Class of committed instruction. (Count)
board.processor.cores1.core.commitStats0.committedInstType::SimdFloatAdd            0      0.00%     63.86% # Class of committed instruction. (Count)
board.processor.cores1.core.commitStats0.committedInstType::SimdFloatAlu            0      0.00%     63.86% # Class of committed instruction. (Count)
board.processor.cores1.core.commitStats0.committedInstType::SimdFloatCmp            0      0.00%     63.86% # Class of committed instruction. (Count)
board.processor.cores1.core.commitStats0.committedInstType::SimdFloatCvt            0      0.00%     63.86% # Class of committed instruction. (Count)
board.processor.cores1.core.commitStats0.committedInstType::SimdFloatDiv            0      0.00%     63.86% # Class of committed instruction. (Count)
board.processor.cores1.core.commitStats0.committedInstType::SimdFloatMisc            0      0.00%     63.86% # Class of committed instruction. (Count)
board.processor.cores1.core.commitStats0.committedInstType::SimdFloatMult            0      0.00%     63.86% # Class of committed instruction. (Count)
board.processor.cores1.core.commitStats0.committedInstType::SimdFloatMultAcc            0      0.00%     63.86% # Class of committed instruction. (Count)
board.processor.cores1.core.commitStats0.committedInstType::SimdFloatMatMultAcc            0      0.00%     63.86% # Class of committed instruction. (Count)
board.processor.cores1.core.commitStats0.committedInstType::SimdFloatSqrt            0      0.00%     63.86% # Class of committed instruction. (Count)
board.processor.cores1.core.commitStats0.committedInstType::SimdReduceAdd            0      0.00%     63.86% # Class of committed instruction. (Count)
board.processor.cores1.core.commitStats0.committedInstType::SimdReduceAlu            0      0.00%     63.86% # Class of committed instruction. (Count)
board.processor.cores1.core.commitStats0.committedInstType::SimdReduceCmp            0      0.00%     63.86% # Class of committed instruction. (Count)
board.processor.cores1.core.commitStats0.committedInstType::SimdFloatReduceAdd            0      0.00%     63.86% # Class of committed instruction. (Count)
board.processor.cores1.core.commitStats0.committedInstType::SimdFloatReduceCmp            0      0.00%     63.86% # Class of committed instruction. (Count)
board.processor.cores1.core.commitStats0.committedInstType::SimdAes            0      0.00%     63.86% # Class of committed instruction. (Count)
board.processor.cores1.core.commitStats0.committedInstType::SimdAesMix            0      0.00%     63.86% # Class of committed instruction. (Count)
board.processor.cores1.core.commitStats0.committedInstType::SimdSha1Hash            0      0.00%     63.86% # Class of committed instruction. (Count)
board.processor.cores1.core.commitStats0.committedInstType::SimdSha1Hash2            0      0.00%     63.86% # Class of committed instruction. (Count)
board.processor.cores1.core.commitStats0.committedInstType::SimdSha256Hash            0      0.00%     63.86% # Class of committed instruction. (Count)
board.processor.cores1.core.commitStats0.committedInstType::SimdSha256Hash2            0      0.00%     63.86% # Class of committed instruction. (Count)
board.processor.cores1.core.commitStats0.committedInstType::SimdShaSigma2            0      0.00%     63.86% # Class of committed instruction. (Count)
board.processor.cores1.core.commitStats0.committedInstType::SimdShaSigma3            0      0.00%     63.86% # Class of committed instruction. (Count)
board.processor.cores1.core.commitStats0.committedInstType::SimdPredAlu            0      0.00%     63.86% # Class of committed instruction. (Count)
board.processor.cores1.core.commitStats0.committedInstType::Matrix            0      0.00%     63.86% # Class of committed instruction. (Count)
board.processor.cores1.core.commitStats0.committedInstType::MatrixMov            0      0.00%     63.86% # Class of committed instruction. (Count)
board.processor.cores1.core.commitStats0.committedInstType::MatrixOP            0      0.00%     63.86% # Class of committed instruction. (Count)
board.processor.cores1.core.commitStats0.committedInstType::MemRead     48663304     21.02%     84.88% # Class of committed instruction. (Count)
board.processor.cores1.core.commitStats0.committedInstType::MemWrite     35018030     15.12%    100.00% # Class of committed instruction. (Count)
board.processor.cores1.core.commitStats0.committedInstType::FloatMemRead         2048      0.00%    100.00% # Class of committed instruction. (Count)
board.processor.cores1.core.commitStats0.committedInstType::FloatMemWrite            0      0.00%    100.00% # Class of committed instruction. (Count)
board.processor.cores1.core.commitStats0.committedInstType::IprAccess            0      0.00%    100.00% # Class of committed instruction. (Count)
board.processor.cores1.core.commitStats0.committedInstType::InstPrefetch            0      0.00%    100.00% # Class of committed instruction. (Count)
board.processor.cores1.core.commitStats0.committedInstType::VectorUnitStrideLoad            0      0.00%    100.00% # Class of committed instruction. (Count)
board.processor.cores1.core.commitStats0.committedInstType::VectorUnitStrideStore            0      0.00%    100.00% # Class of committed instruction. (Count)
board.processor.cores1.core.commitStats0.committedInstType::VectorUnitStrideMaskLoad            0      0.00%    100.00% # Class of committed instruction. (Count)
board.processor.cores1.core.commitStats0.committedInstType::VectorUnitStrideMaskStore            0      0.00%    100.00% # Class of committed instruction. (Count)
board.processor.cores1.core.commitStats0.committedInstType::VectorStridedLoad            0      0.00%    100.00% # Class of committed instruction. (Count)
board.processor.cores1.core.commitStats0.committedInstType::VectorStridedStore            0      0.00%    100.00% # Class of committed instruction. (Count)
board.processor.cores1.core.commitStats0.committedInstType::VectorIndexedLoad            0      0.00%    100.00% # Class of committed instruction. (Count)
board.processor.cores1.core.commitStats0.committedInstType::VectorIndexedStore            0      0.00%    100.00% # Class of committed instruction. (Count)
board.processor.cores1.core.commitStats0.committedInstType::VectorUnitStrideFaultOnlyFirstLoad            0      0.00%    100.00% # Class of committed instruction. (Count)
board.processor.cores1.core.commitStats0.committedInstType::VectorWholeRegisterLoad            0      0.00%    100.00% # Class of committed instruction. (Count)
board.processor.cores1.core.commitStats0.committedInstType::VectorWholeRegisterStore            0      0.00%    100.00% # Class of committed instruction. (Count)
board.processor.cores1.core.commitStats0.committedInstType::VectorIntegerArith            0      0.00%    100.00% # Class of committed instruction. (Count)
board.processor.cores1.core.commitStats0.committedInstType::VectorFloatArith            0      0.00%    100.00% # Class of committed instruction. (Count)
board.processor.cores1.core.commitStats0.committedInstType::VectorFloatConvert            0      0.00%    100.00% # Class of committed instruction. (Count)
board.processor.cores1.core.commitStats0.committedInstType::VectorIntegerReduce            0      0.00%    100.00% # Class of committed instruction. (Count)
board.processor.cores1.core.commitStats0.committedInstType::VectorFloatReduce            0      0.00%    100.00% # Class of committed instruction. (Count)
board.processor.cores1.core.commitStats0.committedInstType::VectorMisc            0      0.00%    100.00% # Class of committed instruction. (Count)
board.processor.cores1.core.commitStats0.committedInstType::VectorIntegerExtension            0      0.00%    100.00% # Class of committed instruction. (Count)
board.processor.cores1.core.commitStats0.committedInstType::VectorConfig            0      0.00%    100.00% # Class of committed instruction. (Count)
board.processor.cores1.core.commitStats0.committedInstType::total    231542705                       # Class of committed instruction. (Count)
board.processor.cores1.core.commitStats0.committedControl::IsControl     54243819                       # Class of control type instructions committed (Count)
board.processor.cores1.core.commitStats0.committedControl::IsDirectControl     50758807                       # Class of control type instructions committed (Count)
board.processor.cores1.core.commitStats0.committedControl::IsIndirectControl      3470583                       # Class of control type instructions committed (Count)
board.processor.cores1.core.commitStats0.committedControl::IsCondControl     45028147                       # Class of control type instructions committed (Count)
board.processor.cores1.core.commitStats0.committedControl::IsUncondControl      9201243                       # Class of control type instructions committed (Count)
board.processor.cores1.core.commitStats0.committedControl::IsCall      2928839                       # Class of control type instructions committed (Count)
board.processor.cores1.core.commitStats0.committedControl::IsReturn      2948148                       # Class of control type instructions committed (Count)
board.processor.cores1.core.exec_context.thread_0.numMatAluAccesses            0                       # Number of matrix alu accesses (Count)
board.processor.cores1.core.exec_context.thread_0.numCallsReturns      5876987                       # Number of times a function call or return occured (Count)
board.processor.cores1.core.exec_context.thread_0.numMatInsts            0                       # Number of matrix instructions (Count)
board.processor.cores1.core.exec_context.thread_0.numIdleCycles            0                       # Number of idle cycles (Cycle)
board.processor.cores1.core.exec_context.thread_0.numBusyCycles  19212773338                       # Number of busy cycles (Cycle)
board.processor.cores1.core.exec_context.thread_0.notIdleFraction            1                       # Percentage of non-idle cycles (Ratio)
board.processor.cores1.core.exec_context.thread_0.idleFraction            0                       # Percentage of idle cycles (Ratio)
board.processor.cores1.core.executeStats0.numInsts            0                       # Number of executed instructions (Count)
board.processor.cores1.core.executeStats0.numNop            0                       # Number of nop insts executed (Count)
board.processor.cores1.core.executeStats0.numBranches            0                       # Number of branches executed (Count)
board.processor.cores1.core.executeStats0.numLoadInsts            0                       # Number of load instructions executed (Count)
board.processor.cores1.core.executeStats0.numStoreInsts     83683382                       # Number of stores executed (Count)
board.processor.cores1.core.executeStats0.instRate            0                       # Inst execution rate ((Count/Cycle))
board.processor.cores1.core.executeStats0.numFpAluAccesses         2048                       # Number of float alu accesses (Count)
board.processor.cores1.core.executeStats0.numFpRegWrites         2048                       # Number of times the floating registers were written (Count)
board.processor.cores1.core.executeStats0.numIntAluAccesses    227043288                       # Number of integer alu accesses (Count)
board.processor.cores1.core.executeStats0.numIntRegReads    287448718                       # Number of times the integer registers were read (Count)
board.processor.cores1.core.executeStats0.numIntRegWrites    144332555                       # Number of times the integer registers were written (Count)
board.processor.cores1.core.executeStats0.numMemRefs     83683382                       # Number of memory refs (Count)
board.processor.cores1.core.executeStats0.numMiscRegReads       414458                       # Number of times the Misc registers were read (Count)
board.processor.cores1.core.executeStats0.numMiscRegWrites       123193                       # Number of times the Misc registers were written (Count)
board.processor.cores1.core.executeStats0.numVecAluAccesses            0                       # Number of vector alu accesses (Count)
board.processor.cores1.core.executeStats0.numDiscardedOps            0                       # Number of ops (including micro ops) which were discarded before commit (Count)
board.processor.cores1.core.fetchStats0.numInsts    230900261                       # Number of instructions fetched (thread level) (Count)
board.processor.cores1.core.fetchStats0.numOps    231542705                       # Number of ops (including micro ops) fetched (thread level) (Count)
board.processor.cores1.core.fetchStats0.fetchRate     0.012018                       # Number of inst fetches per cycle ((Count/Cycle))
board.processor.cores1.core.fetchStats0.numBranches     54243819                       # Number of branches fetched (Count)
board.processor.cores1.core.fetchStats0.branchRate     0.002823                       # Number of branch fetches per cycle (Ratio)
board.processor.cores1.core.fetchStats0.numFetchSuspends            0                       # Number of times Execute suspended instruction fetching (Count)
board.processor.cores1.core.mmu.dtb.readHits     47811449                       # read hits (Count)
board.processor.cores1.core.mmu.dtb.readMisses            4                       # read misses (Count)
board.processor.cores1.core.mmu.dtb.readAccesses     47811453                       # read accesses (Count)
board.processor.cores1.core.mmu.dtb.writeHits     35497055                       # write hits (Count)
board.processor.cores1.core.mmu.dtb.writeMisses           19                       # write misses (Count)
board.processor.cores1.core.mmu.dtb.writeAccesses     35497074                       # write accesses (Count)
board.processor.cores1.core.mmu.dtb.hits     83308504                       # Total TLB (read and write) hits (Count)
board.processor.cores1.core.mmu.dtb.misses           23                       # Total TLB (read and write) misses (Count)
board.processor.cores1.core.mmu.dtb.accesses     83308527                       # Total TLB (read and write) accesses (Count)
board.processor.cores1.core.mmu.dtb.walker.power_state.pwrStateResidencyTicks::UNDEFINED 126433695782000                       # Cumulative time (in ticks) in various power states (Tick)
board.processor.cores1.core.mmu.itb.readHits    286281965                       # read hits (Count)
board.processor.cores1.core.mmu.itb.readMisses           10                       # read misses (Count)
board.processor.cores1.core.mmu.itb.readAccesses    286281975                       # read accesses (Count)
board.processor.cores1.core.mmu.itb.writeHits            0                       # write hits (Count)
board.processor.cores1.core.mmu.itb.writeMisses            0                       # write misses (Count)
board.processor.cores1.core.mmu.itb.writeAccesses            0                       # write accesses (Count)
board.processor.cores1.core.mmu.itb.hits    286281965                       # Total TLB (read and write) hits (Count)
board.processor.cores1.core.mmu.itb.misses           10                       # Total TLB (read and write) misses (Count)
board.processor.cores1.core.mmu.itb.accesses    286281975                       # Total TLB (read and write) accesses (Count)
board.processor.cores1.core.mmu.itb.walker.power_state.pwrStateResidencyTicks::UNDEFINED 126433695782000                       # Cumulative time (in ticks) in various power states (Tick)
board.processor.cores1.core.power_state.pwrStateResidencyTicks::ON 19321794074000                       # Cumulative time (in ticks) in various power states (Tick)
board.processor.cores1.core.thread_0.numInsts            0                       # Number of Instructions committed (Count)
board.processor.cores1.core.thread_0.numOps            0                       # Number of Ops committed (Count)
board.processor.cores1.core.thread_0.numMemRefs            0                       # Number of Memory References (Count)
board.rng.power_state.pwrStateResidencyTicks::UNDEFINED 126433695782000                       # Cumulative time (in ticks) in various power states (Tick)
board.workload.inst.arm                             0                       # number of arm instructions executed (Count)
board.workload.inst.quiesce                         0                       # number of quiesce instructions executed (Count)

---------- End Simulation Statistics   ----------
