
---------- Begin Simulation Statistics ----------
simSeconds                                   0.406161                       # Number of seconds simulated (Second)
simTicks                                 406161436000                       # Number of ticks simulated (Tick)
finalTick                                100835718391000                       # Number of ticks from beginning of simulation (restored from checkpoints and never reset) (Tick)
simFreq                                  1000000000000                       # The number of ticks per simulated second ((Tick/Second))
hostSeconds                                    462.60                       # Real time elapsed on the host (Second)
hostTickRate                                878006303                       # The number of ticks simulated per host second (ticks/s) ((Tick/Second))
hostMemory                                    8551956                       # Number of bytes of host memory used (Byte)
simInsts                                    452775336                       # Number of instructions simulated (Count)
simOps                                      453901179                       # Number of ops (including micro ops) simulated (Count)
hostInstRate                                   978772                       # Simulator instruction rate (inst/s) ((Count/Second))
hostOpRate                                     981206                       # Simulator op (including micro ops) rate (op/s) ((Count/Second))
board.bridge.power_state.pwrStateResidencyTicks::UNDEFINED 100835718391000                       # Cumulative time (in ticks) in various power states (Tick)
board.cache_hierarchy.dptw_caches0.demandHits::processor.cores0.core.mmu.dtb.walker          312                       # number of demand (read+write) hits (Count)
board.cache_hierarchy.dptw_caches0.demandHits::total          312                       # number of demand (read+write) hits (Count)
board.cache_hierarchy.dptw_caches0.overallHits::processor.cores0.core.mmu.dtb.walker          312                       # number of overall hits (Count)
board.cache_hierarchy.dptw_caches0.overallHits::total          312                       # number of overall hits (Count)
board.cache_hierarchy.dptw_caches0.demandMisses::processor.cores0.core.mmu.dtb.walker           77                       # number of demand (read+write) misses (Count)
board.cache_hierarchy.dptw_caches0.demandMisses::total           77                       # number of demand (read+write) misses (Count)
board.cache_hierarchy.dptw_caches0.overallMisses::processor.cores0.core.mmu.dtb.walker           77                       # number of overall misses (Count)
board.cache_hierarchy.dptw_caches0.overallMisses::total           77                       # number of overall misses (Count)
board.cache_hierarchy.dptw_caches0.demandMissLatency::processor.cores0.core.mmu.dtb.walker      3436000                       # number of demand (read+write) miss ticks (Tick)
board.cache_hierarchy.dptw_caches0.demandMissLatency::total      3436000                       # number of demand (read+write) miss ticks (Tick)
board.cache_hierarchy.dptw_caches0.overallMissLatency::processor.cores0.core.mmu.dtb.walker      3436000                       # number of overall miss ticks (Tick)
board.cache_hierarchy.dptw_caches0.overallMissLatency::total      3436000                       # number of overall miss ticks (Tick)
board.cache_hierarchy.dptw_caches0.demandAccesses::processor.cores0.core.mmu.dtb.walker          389                       # number of demand (read+write) accesses (Count)
board.cache_hierarchy.dptw_caches0.demandAccesses::total          389                       # number of demand (read+write) accesses (Count)
board.cache_hierarchy.dptw_caches0.overallAccesses::processor.cores0.core.mmu.dtb.walker          389                       # number of overall (read+write) accesses (Count)
board.cache_hierarchy.dptw_caches0.overallAccesses::total          389                       # number of overall (read+write) accesses (Count)
board.cache_hierarchy.dptw_caches0.demandMissRate::processor.cores0.core.mmu.dtb.walker     0.197943                       # miss rate for demand accesses (Ratio)
board.cache_hierarchy.dptw_caches0.demandMissRate::total     0.197943                       # miss rate for demand accesses (Ratio)
board.cache_hierarchy.dptw_caches0.overallMissRate::processor.cores0.core.mmu.dtb.walker     0.197943                       # miss rate for overall accesses (Ratio)
board.cache_hierarchy.dptw_caches0.overallMissRate::total     0.197943                       # miss rate for overall accesses (Ratio)
board.cache_hierarchy.dptw_caches0.demandAvgMissLatency::processor.cores0.core.mmu.dtb.walker 44623.376623                       # average overall miss latency in ticks ((Tick/Count))
board.cache_hierarchy.dptw_caches0.demandAvgMissLatency::total 44623.376623                       # average overall miss latency in ticks ((Tick/Count))
board.cache_hierarchy.dptw_caches0.overallAvgMissLatency::processor.cores0.core.mmu.dtb.walker 44623.376623                       # average overall miss latency ((Tick/Count))
board.cache_hierarchy.dptw_caches0.overallAvgMissLatency::total 44623.376623                       # average overall miss latency ((Tick/Count))
board.cache_hierarchy.dptw_caches0.blockedCycles::no_mshrs            0                       # number of cycles access was blocked (Cycle)
board.cache_hierarchy.dptw_caches0.blockedCycles::no_targets            0                       # number of cycles access was blocked (Cycle)
board.cache_hierarchy.dptw_caches0.blockedCauses::no_mshrs            0                       # number of times access was blocked (Count)
board.cache_hierarchy.dptw_caches0.blockedCauses::no_targets            0                       # number of times access was blocked (Count)
board.cache_hierarchy.dptw_caches0.avgBlocked::no_mshrs          nan                       # average number of cycles each access was blocked ((Cycle/Count))
board.cache_hierarchy.dptw_caches0.avgBlocked::no_targets          nan                       # average number of cycles each access was blocked ((Cycle/Count))
board.cache_hierarchy.dptw_caches0.writebacks::writebacks           40                       # number of writebacks (Count)
board.cache_hierarchy.dptw_caches0.writebacks::total           40                       # number of writebacks (Count)
board.cache_hierarchy.dptw_caches0.demandMshrMisses::processor.cores0.core.mmu.dtb.walker           77                       # number of demand (read+write) MSHR misses (Count)
board.cache_hierarchy.dptw_caches0.demandMshrMisses::total           77                       # number of demand (read+write) MSHR misses (Count)
board.cache_hierarchy.dptw_caches0.overallMshrMisses::processor.cores0.core.mmu.dtb.walker           77                       # number of overall MSHR misses (Count)
board.cache_hierarchy.dptw_caches0.overallMshrMisses::total           77                       # number of overall MSHR misses (Count)
board.cache_hierarchy.dptw_caches0.demandMshrMissLatency::processor.cores0.core.mmu.dtb.walker      3359000                       # number of demand (read+write) MSHR miss ticks (Tick)
board.cache_hierarchy.dptw_caches0.demandMshrMissLatency::total      3359000                       # number of demand (read+write) MSHR miss ticks (Tick)
board.cache_hierarchy.dptw_caches0.overallMshrMissLatency::processor.cores0.core.mmu.dtb.walker      3359000                       # number of overall MSHR miss ticks (Tick)
board.cache_hierarchy.dptw_caches0.overallMshrMissLatency::total      3359000                       # number of overall MSHR miss ticks (Tick)
board.cache_hierarchy.dptw_caches0.demandMshrMissRate::processor.cores0.core.mmu.dtb.walker     0.197943                       # mshr miss ratio for demand accesses (Ratio)
board.cache_hierarchy.dptw_caches0.demandMshrMissRate::total     0.197943                       # mshr miss ratio for demand accesses (Ratio)
board.cache_hierarchy.dptw_caches0.overallMshrMissRate::processor.cores0.core.mmu.dtb.walker     0.197943                       # mshr miss ratio for overall accesses (Ratio)
board.cache_hierarchy.dptw_caches0.overallMshrMissRate::total     0.197943                       # mshr miss ratio for overall accesses (Ratio)
board.cache_hierarchy.dptw_caches0.demandAvgMshrMissLatency::processor.cores0.core.mmu.dtb.walker 43623.376623                       # average overall mshr miss latency ((Tick/Count))
board.cache_hierarchy.dptw_caches0.demandAvgMshrMissLatency::total 43623.376623                       # average overall mshr miss latency ((Tick/Count))
board.cache_hierarchy.dptw_caches0.overallAvgMshrMissLatency::processor.cores0.core.mmu.dtb.walker 43623.376623                       # average overall mshr miss latency ((Tick/Count))
board.cache_hierarchy.dptw_caches0.overallAvgMshrMissLatency::total 43623.376623                       # average overall mshr miss latency ((Tick/Count))
board.cache_hierarchy.dptw_caches0.replacements           40                       # number of replacements (Count)
board.cache_hierarchy.dptw_caches0.ReadReq.hits::processor.cores0.core.mmu.dtb.walker          312                       # number of ReadReq hits (Count)
board.cache_hierarchy.dptw_caches0.ReadReq.hits::total          312                       # number of ReadReq hits (Count)
board.cache_hierarchy.dptw_caches0.ReadReq.misses::processor.cores0.core.mmu.dtb.walker           77                       # number of ReadReq misses (Count)
board.cache_hierarchy.dptw_caches0.ReadReq.misses::total           77                       # number of ReadReq misses (Count)
board.cache_hierarchy.dptw_caches0.ReadReq.missLatency::processor.cores0.core.mmu.dtb.walker      3436000                       # number of ReadReq miss ticks (Tick)
board.cache_hierarchy.dptw_caches0.ReadReq.missLatency::total      3436000                       # number of ReadReq miss ticks (Tick)
board.cache_hierarchy.dptw_caches0.ReadReq.accesses::processor.cores0.core.mmu.dtb.walker          389                       # number of ReadReq accesses(hits+misses) (Count)
board.cache_hierarchy.dptw_caches0.ReadReq.accesses::total          389                       # number of ReadReq accesses(hits+misses) (Count)
board.cache_hierarchy.dptw_caches0.ReadReq.missRate::processor.cores0.core.mmu.dtb.walker     0.197943                       # miss rate for ReadReq accesses (Ratio)
board.cache_hierarchy.dptw_caches0.ReadReq.missRate::total     0.197943                       # miss rate for ReadReq accesses (Ratio)
board.cache_hierarchy.dptw_caches0.ReadReq.avgMissLatency::processor.cores0.core.mmu.dtb.walker 44623.376623                       # average ReadReq miss latency ((Tick/Count))
board.cache_hierarchy.dptw_caches0.ReadReq.avgMissLatency::total 44623.376623                       # average ReadReq miss latency ((Tick/Count))
board.cache_hierarchy.dptw_caches0.ReadReq.mshrMisses::processor.cores0.core.mmu.dtb.walker           77                       # number of ReadReq MSHR misses (Count)
board.cache_hierarchy.dptw_caches0.ReadReq.mshrMisses::total           77                       # number of ReadReq MSHR misses (Count)
board.cache_hierarchy.dptw_caches0.ReadReq.mshrMissLatency::processor.cores0.core.mmu.dtb.walker      3359000                       # number of ReadReq MSHR miss ticks (Tick)
board.cache_hierarchy.dptw_caches0.ReadReq.mshrMissLatency::total      3359000                       # number of ReadReq MSHR miss ticks (Tick)
board.cache_hierarchy.dptw_caches0.ReadReq.mshrMissRate::processor.cores0.core.mmu.dtb.walker     0.197943                       # mshr miss rate for ReadReq accesses (Ratio)
board.cache_hierarchy.dptw_caches0.ReadReq.mshrMissRate::total     0.197943                       # mshr miss rate for ReadReq accesses (Ratio)
board.cache_hierarchy.dptw_caches0.ReadReq.avgMshrMissLatency::processor.cores0.core.mmu.dtb.walker 43623.376623                       # average ReadReq mshr miss latency ((Tick/Count))
board.cache_hierarchy.dptw_caches0.ReadReq.avgMshrMissLatency::total 43623.376623                       # average ReadReq mshr miss latency ((Tick/Count))
board.cache_hierarchy.dptw_caches0.power_state.pwrStateResidencyTicks::UNDEFINED 100835718391000                       # Cumulative time (in ticks) in various power states (Tick)
board.cache_hierarchy.dptw_caches0.tags.tagsInUse    59.923628                       # Average ticks per tags in use ((Tick/Count))
board.cache_hierarchy.dptw_caches0.tags.totalRefs          518                       # Total number of references to valid blocks. (Count)
board.cache_hierarchy.dptw_caches0.tags.sampledRefs           50                       # Sample count of references to valid blocks. (Count)
board.cache_hierarchy.dptw_caches0.tags.avgRefs    10.360000                       # Average number of references to valid blocks. ((Count/Count))
board.cache_hierarchy.dptw_caches0.tags.warmupTick            0                       # The tick when the warmup percentage was hit. (Tick)
board.cache_hierarchy.dptw_caches0.tags.occupancies::processor.cores0.core.mmu.dtb.walker    59.923628                       # Average occupied blocks per tick, per requestor ((Count/Tick))
board.cache_hierarchy.dptw_caches0.tags.avgOccs::processor.cores0.core.mmu.dtb.walker     0.468153                       # Average percentage of cache occupancy ((Ratio/Tick))
board.cache_hierarchy.dptw_caches0.tags.avgOccs::total     0.468153                       # Average percentage of cache occupancy ((Ratio/Tick))
board.cache_hierarchy.dptw_caches0.tags.occupanciesTaskId::1024           60                       # Occupied blocks per task id (Count)
board.cache_hierarchy.dptw_caches0.tags.ageTaskId_1024::4           60                       # Occupied blocks per task id, per block age (Count)
board.cache_hierarchy.dptw_caches0.tags.ratioOccsTaskId::1024     0.468750                       # Ratio of occupied blocks and all blocks, per task id (Ratio)
board.cache_hierarchy.dptw_caches0.tags.tagAccesses         1633                       # Number of tag accesses (Count)
board.cache_hierarchy.dptw_caches0.tags.dataAccesses         1633                       # Number of data accesses (Count)
board.cache_hierarchy.dptw_caches0.tags.power_state.pwrStateResidencyTicks::UNDEFINED 100835718391000                       # Cumulative time (in ticks) in various power states (Tick)
board.cache_hierarchy.dptw_caches1.demandHits::processor.cores1.core.mmu.dtb.walker           42                       # number of demand (read+write) hits (Count)
board.cache_hierarchy.dptw_caches1.demandHits::total           42                       # number of demand (read+write) hits (Count)
board.cache_hierarchy.dptw_caches1.overallHits::processor.cores1.core.mmu.dtb.walker           42                       # number of overall hits (Count)
board.cache_hierarchy.dptw_caches1.overallHits::total           42                       # number of overall hits (Count)
board.cache_hierarchy.dptw_caches1.demandMisses::processor.cores1.core.mmu.dtb.walker           14                       # number of demand (read+write) misses (Count)
board.cache_hierarchy.dptw_caches1.demandMisses::total           14                       # number of demand (read+write) misses (Count)
board.cache_hierarchy.dptw_caches1.overallMisses::processor.cores1.core.mmu.dtb.walker           14                       # number of overall misses (Count)
board.cache_hierarchy.dptw_caches1.overallMisses::total           14                       # number of overall misses (Count)
board.cache_hierarchy.dptw_caches1.demandMissLatency::processor.cores1.core.mmu.dtb.walker       232000                       # number of demand (read+write) miss ticks (Tick)
board.cache_hierarchy.dptw_caches1.demandMissLatency::total       232000                       # number of demand (read+write) miss ticks (Tick)
board.cache_hierarchy.dptw_caches1.overallMissLatency::processor.cores1.core.mmu.dtb.walker       232000                       # number of overall miss ticks (Tick)
board.cache_hierarchy.dptw_caches1.overallMissLatency::total       232000                       # number of overall miss ticks (Tick)
board.cache_hierarchy.dptw_caches1.demandAccesses::processor.cores1.core.mmu.dtb.walker           56                       # number of demand (read+write) accesses (Count)
board.cache_hierarchy.dptw_caches1.demandAccesses::total           56                       # number of demand (read+write) accesses (Count)
board.cache_hierarchy.dptw_caches1.overallAccesses::processor.cores1.core.mmu.dtb.walker           56                       # number of overall (read+write) accesses (Count)
board.cache_hierarchy.dptw_caches1.overallAccesses::total           56                       # number of overall (read+write) accesses (Count)
board.cache_hierarchy.dptw_caches1.demandMissRate::processor.cores1.core.mmu.dtb.walker     0.250000                       # miss rate for demand accesses (Ratio)
board.cache_hierarchy.dptw_caches1.demandMissRate::total     0.250000                       # miss rate for demand accesses (Ratio)
board.cache_hierarchy.dptw_caches1.overallMissRate::processor.cores1.core.mmu.dtb.walker     0.250000                       # miss rate for overall accesses (Ratio)
board.cache_hierarchy.dptw_caches1.overallMissRate::total     0.250000                       # miss rate for overall accesses (Ratio)
board.cache_hierarchy.dptw_caches1.demandAvgMissLatency::processor.cores1.core.mmu.dtb.walker 16571.428571                       # average overall miss latency in ticks ((Tick/Count))
board.cache_hierarchy.dptw_caches1.demandAvgMissLatency::total 16571.428571                       # average overall miss latency in ticks ((Tick/Count))
board.cache_hierarchy.dptw_caches1.overallAvgMissLatency::processor.cores1.core.mmu.dtb.walker 16571.428571                       # average overall miss latency ((Tick/Count))
board.cache_hierarchy.dptw_caches1.overallAvgMissLatency::total 16571.428571                       # average overall miss latency ((Tick/Count))
board.cache_hierarchy.dptw_caches1.blockedCycles::no_mshrs            0                       # number of cycles access was blocked (Cycle)
board.cache_hierarchy.dptw_caches1.blockedCycles::no_targets            0                       # number of cycles access was blocked (Cycle)
board.cache_hierarchy.dptw_caches1.blockedCauses::no_mshrs            0                       # number of times access was blocked (Count)
board.cache_hierarchy.dptw_caches1.blockedCauses::no_targets            0                       # number of times access was blocked (Count)
board.cache_hierarchy.dptw_caches1.avgBlocked::no_mshrs          nan                       # average number of cycles each access was blocked ((Cycle/Count))
board.cache_hierarchy.dptw_caches1.avgBlocked::no_targets          nan                       # average number of cycles each access was blocked ((Cycle/Count))
board.cache_hierarchy.dptw_caches1.writebacks::writebacks            2                       # number of writebacks (Count)
board.cache_hierarchy.dptw_caches1.writebacks::total            2                       # number of writebacks (Count)
board.cache_hierarchy.dptw_caches1.demandMshrMisses::processor.cores1.core.mmu.dtb.walker           14                       # number of demand (read+write) MSHR misses (Count)
board.cache_hierarchy.dptw_caches1.demandMshrMisses::total           14                       # number of demand (read+write) MSHR misses (Count)
board.cache_hierarchy.dptw_caches1.overallMshrMisses::processor.cores1.core.mmu.dtb.walker           14                       # number of overall MSHR misses (Count)
board.cache_hierarchy.dptw_caches1.overallMshrMisses::total           14                       # number of overall MSHR misses (Count)
board.cache_hierarchy.dptw_caches1.demandMshrMissLatency::processor.cores1.core.mmu.dtb.walker       218000                       # number of demand (read+write) MSHR miss ticks (Tick)
board.cache_hierarchy.dptw_caches1.demandMshrMissLatency::total       218000                       # number of demand (read+write) MSHR miss ticks (Tick)
board.cache_hierarchy.dptw_caches1.overallMshrMissLatency::processor.cores1.core.mmu.dtb.walker       218000                       # number of overall MSHR miss ticks (Tick)
board.cache_hierarchy.dptw_caches1.overallMshrMissLatency::total       218000                       # number of overall MSHR miss ticks (Tick)
board.cache_hierarchy.dptw_caches1.demandMshrMissRate::processor.cores1.core.mmu.dtb.walker     0.250000                       # mshr miss ratio for demand accesses (Ratio)
board.cache_hierarchy.dptw_caches1.demandMshrMissRate::total     0.250000                       # mshr miss ratio for demand accesses (Ratio)
board.cache_hierarchy.dptw_caches1.overallMshrMissRate::processor.cores1.core.mmu.dtb.walker     0.250000                       # mshr miss ratio for overall accesses (Ratio)
board.cache_hierarchy.dptw_caches1.overallMshrMissRate::total     0.250000                       # mshr miss ratio for overall accesses (Ratio)
board.cache_hierarchy.dptw_caches1.demandAvgMshrMissLatency::processor.cores1.core.mmu.dtb.walker 15571.428571                       # average overall mshr miss latency ((Tick/Count))
board.cache_hierarchy.dptw_caches1.demandAvgMshrMissLatency::total 15571.428571                       # average overall mshr miss latency ((Tick/Count))
board.cache_hierarchy.dptw_caches1.overallAvgMshrMissLatency::processor.cores1.core.mmu.dtb.walker 15571.428571                       # average overall mshr miss latency ((Tick/Count))
board.cache_hierarchy.dptw_caches1.overallAvgMshrMissLatency::total 15571.428571                       # average overall mshr miss latency ((Tick/Count))
board.cache_hierarchy.dptw_caches1.replacements            2                       # number of replacements (Count)
board.cache_hierarchy.dptw_caches1.ReadReq.hits::processor.cores1.core.mmu.dtb.walker           42                       # number of ReadReq hits (Count)
board.cache_hierarchy.dptw_caches1.ReadReq.hits::total           42                       # number of ReadReq hits (Count)
board.cache_hierarchy.dptw_caches1.ReadReq.misses::processor.cores1.core.mmu.dtb.walker           14                       # number of ReadReq misses (Count)
board.cache_hierarchy.dptw_caches1.ReadReq.misses::total           14                       # number of ReadReq misses (Count)
board.cache_hierarchy.dptw_caches1.ReadReq.missLatency::processor.cores1.core.mmu.dtb.walker       232000                       # number of ReadReq miss ticks (Tick)
board.cache_hierarchy.dptw_caches1.ReadReq.missLatency::total       232000                       # number of ReadReq miss ticks (Tick)
board.cache_hierarchy.dptw_caches1.ReadReq.accesses::processor.cores1.core.mmu.dtb.walker           56                       # number of ReadReq accesses(hits+misses) (Count)
board.cache_hierarchy.dptw_caches1.ReadReq.accesses::total           56                       # number of ReadReq accesses(hits+misses) (Count)
board.cache_hierarchy.dptw_caches1.ReadReq.missRate::processor.cores1.core.mmu.dtb.walker     0.250000                       # miss rate for ReadReq accesses (Ratio)
board.cache_hierarchy.dptw_caches1.ReadReq.missRate::total     0.250000                       # miss rate for ReadReq accesses (Ratio)
board.cache_hierarchy.dptw_caches1.ReadReq.avgMissLatency::processor.cores1.core.mmu.dtb.walker 16571.428571                       # average ReadReq miss latency ((Tick/Count))
board.cache_hierarchy.dptw_caches1.ReadReq.avgMissLatency::total 16571.428571                       # average ReadReq miss latency ((Tick/Count))
board.cache_hierarchy.dptw_caches1.ReadReq.mshrMisses::processor.cores1.core.mmu.dtb.walker           14                       # number of ReadReq MSHR misses (Count)
board.cache_hierarchy.dptw_caches1.ReadReq.mshrMisses::total           14                       # number of ReadReq MSHR misses (Count)
board.cache_hierarchy.dptw_caches1.ReadReq.mshrMissLatency::processor.cores1.core.mmu.dtb.walker       218000                       # number of ReadReq MSHR miss ticks (Tick)
board.cache_hierarchy.dptw_caches1.ReadReq.mshrMissLatency::total       218000                       # number of ReadReq MSHR miss ticks (Tick)
board.cache_hierarchy.dptw_caches1.ReadReq.mshrMissRate::processor.cores1.core.mmu.dtb.walker     0.250000                       # mshr miss rate for ReadReq accesses (Ratio)
board.cache_hierarchy.dptw_caches1.ReadReq.mshrMissRate::total     0.250000                       # mshr miss rate for ReadReq accesses (Ratio)
board.cache_hierarchy.dptw_caches1.ReadReq.avgMshrMissLatency::processor.cores1.core.mmu.dtb.walker 15571.428571                       # average ReadReq mshr miss latency ((Tick/Count))
board.cache_hierarchy.dptw_caches1.ReadReq.avgMshrMissLatency::total 15571.428571                       # average ReadReq mshr miss latency ((Tick/Count))
board.cache_hierarchy.dptw_caches1.power_state.pwrStateResidencyTicks::UNDEFINED 100835718391000                       # Cumulative time (in ticks) in various power states (Tick)
board.cache_hierarchy.dptw_caches1.tags.tagsInUse    28.999742                       # Average ticks per tags in use ((Tick/Count))
board.cache_hierarchy.dptw_caches1.tags.totalRefs           18                       # Total number of references to valid blocks. (Count)
board.cache_hierarchy.dptw_caches1.tags.sampledRefs           13                       # Sample count of references to valid blocks. (Count)
board.cache_hierarchy.dptw_caches1.tags.avgRefs     1.384615                       # Average number of references to valid blocks. ((Count/Count))
board.cache_hierarchy.dptw_caches1.tags.warmupTick            0                       # The tick when the warmup percentage was hit. (Tick)
board.cache_hierarchy.dptw_caches1.tags.occupancies::processor.cores1.core.mmu.dtb.walker    28.999742                       # Average occupied blocks per tick, per requestor ((Count/Tick))
board.cache_hierarchy.dptw_caches1.tags.avgOccs::processor.cores1.core.mmu.dtb.walker     0.226560                       # Average percentage of cache occupancy ((Ratio/Tick))
board.cache_hierarchy.dptw_caches1.tags.avgOccs::total     0.226560                       # Average percentage of cache occupancy ((Ratio/Tick))
board.cache_hierarchy.dptw_caches1.tags.occupanciesTaskId::1024           29                       # Occupied blocks per task id (Count)
board.cache_hierarchy.dptw_caches1.tags.ageTaskId_1024::4           29                       # Occupied blocks per task id, per block age (Count)
board.cache_hierarchy.dptw_caches1.tags.ratioOccsTaskId::1024     0.226562                       # Ratio of occupied blocks and all blocks, per task id (Ratio)
board.cache_hierarchy.dptw_caches1.tags.tagAccesses          238                       # Number of tag accesses (Count)
board.cache_hierarchy.dptw_caches1.tags.dataAccesses          238                       # Number of data accesses (Count)
board.cache_hierarchy.dptw_caches1.tags.power_state.pwrStateResidencyTicks::UNDEFINED 100835718391000                       # Cumulative time (in ticks) in various power states (Tick)
board.cache_hierarchy.iocache.blockedCycles::no_mshrs            0                       # number of cycles access was blocked (Cycle)
board.cache_hierarchy.iocache.blockedCycles::no_targets            0                       # number of cycles access was blocked (Cycle)
board.cache_hierarchy.iocache.blockedCauses::no_mshrs            0                       # number of times access was blocked (Count)
board.cache_hierarchy.iocache.blockedCauses::no_targets            0                       # number of times access was blocked (Count)
board.cache_hierarchy.iocache.avgBlocked::no_mshrs          nan                       # average number of cycles each access was blocked ((Cycle/Count))
board.cache_hierarchy.iocache.avgBlocked::no_targets          nan                       # average number of cycles each access was blocked ((Cycle/Count))
board.cache_hierarchy.iocache.replacements            0                       # number of replacements (Count)
board.cache_hierarchy.iocache.power_state.pwrStateResidencyTicks::UNDEFINED 100835718391000                       # Cumulative time (in ticks) in various power states (Tick)
board.cache_hierarchy.iocache.tags.tagsInUse            0                       # Average ticks per tags in use ((Tick/Count))
board.cache_hierarchy.iocache.tags.totalRefs            0                       # Total number of references to valid blocks. (Count)
board.cache_hierarchy.iocache.tags.sampledRefs            0                       # Sample count of references to valid blocks. (Count)
board.cache_hierarchy.iocache.tags.avgRefs          nan                       # Average number of references to valid blocks. ((Count/Count))
board.cache_hierarchy.iocache.tags.warmupTick            0                       # The tick when the warmup percentage was hit. (Tick)
board.cache_hierarchy.iocache.tags.tagAccesses            0                       # Number of tag accesses (Count)
board.cache_hierarchy.iocache.tags.dataAccesses            0                       # Number of data accesses (Count)
board.cache_hierarchy.iocache.tags.power_state.pwrStateResidencyTicks::UNDEFINED 100835718391000                       # Cumulative time (in ticks) in various power states (Tick)
board.cache_hierarchy.iptw_caches0.demandHits::processor.cores0.core.mmu.itb.walker          295                       # number of demand (read+write) hits (Count)
board.cache_hierarchy.iptw_caches0.demandHits::total          295                       # number of demand (read+write) hits (Count)
board.cache_hierarchy.iptw_caches0.overallHits::processor.cores0.core.mmu.itb.walker          295                       # number of overall hits (Count)
board.cache_hierarchy.iptw_caches0.overallHits::total          295                       # number of overall hits (Count)
board.cache_hierarchy.iptw_caches0.demandMisses::processor.cores0.core.mmu.itb.walker           53                       # number of demand (read+write) misses (Count)
board.cache_hierarchy.iptw_caches0.demandMisses::total           53                       # number of demand (read+write) misses (Count)
board.cache_hierarchy.iptw_caches0.overallMisses::processor.cores0.core.mmu.itb.walker           53                       # number of overall misses (Count)
board.cache_hierarchy.iptw_caches0.overallMisses::total           53                       # number of overall misses (Count)
board.cache_hierarchy.iptw_caches0.demandMissLatency::processor.cores0.core.mmu.itb.walker      3257000                       # number of demand (read+write) miss ticks (Tick)
board.cache_hierarchy.iptw_caches0.demandMissLatency::total      3257000                       # number of demand (read+write) miss ticks (Tick)
board.cache_hierarchy.iptw_caches0.overallMissLatency::processor.cores0.core.mmu.itb.walker      3257000                       # number of overall miss ticks (Tick)
board.cache_hierarchy.iptw_caches0.overallMissLatency::total      3257000                       # number of overall miss ticks (Tick)
board.cache_hierarchy.iptw_caches0.demandAccesses::processor.cores0.core.mmu.itb.walker          348                       # number of demand (read+write) accesses (Count)
board.cache_hierarchy.iptw_caches0.demandAccesses::total          348                       # number of demand (read+write) accesses (Count)
board.cache_hierarchy.iptw_caches0.overallAccesses::processor.cores0.core.mmu.itb.walker          348                       # number of overall (read+write) accesses (Count)
board.cache_hierarchy.iptw_caches0.overallAccesses::total          348                       # number of overall (read+write) accesses (Count)
board.cache_hierarchy.iptw_caches0.demandMissRate::processor.cores0.core.mmu.itb.walker     0.152299                       # miss rate for demand accesses (Ratio)
board.cache_hierarchy.iptw_caches0.demandMissRate::total     0.152299                       # miss rate for demand accesses (Ratio)
board.cache_hierarchy.iptw_caches0.overallMissRate::processor.cores0.core.mmu.itb.walker     0.152299                       # miss rate for overall accesses (Ratio)
board.cache_hierarchy.iptw_caches0.overallMissRate::total     0.152299                       # miss rate for overall accesses (Ratio)
board.cache_hierarchy.iptw_caches0.demandAvgMissLatency::processor.cores0.core.mmu.itb.walker 61452.830189                       # average overall miss latency in ticks ((Tick/Count))
board.cache_hierarchy.iptw_caches0.demandAvgMissLatency::total 61452.830189                       # average overall miss latency in ticks ((Tick/Count))
board.cache_hierarchy.iptw_caches0.overallAvgMissLatency::processor.cores0.core.mmu.itb.walker 61452.830189                       # average overall miss latency ((Tick/Count))
board.cache_hierarchy.iptw_caches0.overallAvgMissLatency::total 61452.830189                       # average overall miss latency ((Tick/Count))
board.cache_hierarchy.iptw_caches0.blockedCycles::no_mshrs            0                       # number of cycles access was blocked (Cycle)
board.cache_hierarchy.iptw_caches0.blockedCycles::no_targets            0                       # number of cycles access was blocked (Cycle)
board.cache_hierarchy.iptw_caches0.blockedCauses::no_mshrs            0                       # number of times access was blocked (Count)
board.cache_hierarchy.iptw_caches0.blockedCauses::no_targets            0                       # number of times access was blocked (Count)
board.cache_hierarchy.iptw_caches0.avgBlocked::no_mshrs          nan                       # average number of cycles each access was blocked ((Cycle/Count))
board.cache_hierarchy.iptw_caches0.avgBlocked::no_targets          nan                       # average number of cycles each access was blocked ((Cycle/Count))
board.cache_hierarchy.iptw_caches0.writebacks::writebacks           12                       # number of writebacks (Count)
board.cache_hierarchy.iptw_caches0.writebacks::total           12                       # number of writebacks (Count)
board.cache_hierarchy.iptw_caches0.demandMshrMisses::processor.cores0.core.mmu.itb.walker           53                       # number of demand (read+write) MSHR misses (Count)
board.cache_hierarchy.iptw_caches0.demandMshrMisses::total           53                       # number of demand (read+write) MSHR misses (Count)
board.cache_hierarchy.iptw_caches0.overallMshrMisses::processor.cores0.core.mmu.itb.walker           53                       # number of overall MSHR misses (Count)
board.cache_hierarchy.iptw_caches0.overallMshrMisses::total           53                       # number of overall MSHR misses (Count)
board.cache_hierarchy.iptw_caches0.demandMshrMissLatency::processor.cores0.core.mmu.itb.walker      3204000                       # number of demand (read+write) MSHR miss ticks (Tick)
board.cache_hierarchy.iptw_caches0.demandMshrMissLatency::total      3204000                       # number of demand (read+write) MSHR miss ticks (Tick)
board.cache_hierarchy.iptw_caches0.overallMshrMissLatency::processor.cores0.core.mmu.itb.walker      3204000                       # number of overall MSHR miss ticks (Tick)
board.cache_hierarchy.iptw_caches0.overallMshrMissLatency::total      3204000                       # number of overall MSHR miss ticks (Tick)
board.cache_hierarchy.iptw_caches0.demandMshrMissRate::processor.cores0.core.mmu.itb.walker     0.152299                       # mshr miss ratio for demand accesses (Ratio)
board.cache_hierarchy.iptw_caches0.demandMshrMissRate::total     0.152299                       # mshr miss ratio for demand accesses (Ratio)
board.cache_hierarchy.iptw_caches0.overallMshrMissRate::processor.cores0.core.mmu.itb.walker     0.152299                       # mshr miss ratio for overall accesses (Ratio)
board.cache_hierarchy.iptw_caches0.overallMshrMissRate::total     0.152299                       # mshr miss ratio for overall accesses (Ratio)
board.cache_hierarchy.iptw_caches0.demandAvgMshrMissLatency::processor.cores0.core.mmu.itb.walker 60452.830189                       # average overall mshr miss latency ((Tick/Count))
board.cache_hierarchy.iptw_caches0.demandAvgMshrMissLatency::total 60452.830189                       # average overall mshr miss latency ((Tick/Count))
board.cache_hierarchy.iptw_caches0.overallAvgMshrMissLatency::processor.cores0.core.mmu.itb.walker 60452.830189                       # average overall mshr miss latency ((Tick/Count))
board.cache_hierarchy.iptw_caches0.overallAvgMshrMissLatency::total 60452.830189                       # average overall mshr miss latency ((Tick/Count))
board.cache_hierarchy.iptw_caches0.replacements           12                       # number of replacements (Count)
board.cache_hierarchy.iptw_caches0.ReadReq.hits::processor.cores0.core.mmu.itb.walker          295                       # number of ReadReq hits (Count)
board.cache_hierarchy.iptw_caches0.ReadReq.hits::total          295                       # number of ReadReq hits (Count)
board.cache_hierarchy.iptw_caches0.ReadReq.misses::processor.cores0.core.mmu.itb.walker           53                       # number of ReadReq misses (Count)
board.cache_hierarchy.iptw_caches0.ReadReq.misses::total           53                       # number of ReadReq misses (Count)
board.cache_hierarchy.iptw_caches0.ReadReq.missLatency::processor.cores0.core.mmu.itb.walker      3257000                       # number of ReadReq miss ticks (Tick)
board.cache_hierarchy.iptw_caches0.ReadReq.missLatency::total      3257000                       # number of ReadReq miss ticks (Tick)
board.cache_hierarchy.iptw_caches0.ReadReq.accesses::processor.cores0.core.mmu.itb.walker          348                       # number of ReadReq accesses(hits+misses) (Count)
board.cache_hierarchy.iptw_caches0.ReadReq.accesses::total          348                       # number of ReadReq accesses(hits+misses) (Count)
board.cache_hierarchy.iptw_caches0.ReadReq.missRate::processor.cores0.core.mmu.itb.walker     0.152299                       # miss rate for ReadReq accesses (Ratio)
board.cache_hierarchy.iptw_caches0.ReadReq.missRate::total     0.152299                       # miss rate for ReadReq accesses (Ratio)
board.cache_hierarchy.iptw_caches0.ReadReq.avgMissLatency::processor.cores0.core.mmu.itb.walker 61452.830189                       # average ReadReq miss latency ((Tick/Count))
board.cache_hierarchy.iptw_caches0.ReadReq.avgMissLatency::total 61452.830189                       # average ReadReq miss latency ((Tick/Count))
board.cache_hierarchy.iptw_caches0.ReadReq.mshrMisses::processor.cores0.core.mmu.itb.walker           53                       # number of ReadReq MSHR misses (Count)
board.cache_hierarchy.iptw_caches0.ReadReq.mshrMisses::total           53                       # number of ReadReq MSHR misses (Count)
board.cache_hierarchy.iptw_caches0.ReadReq.mshrMissLatency::processor.cores0.core.mmu.itb.walker      3204000                       # number of ReadReq MSHR miss ticks (Tick)
board.cache_hierarchy.iptw_caches0.ReadReq.mshrMissLatency::total      3204000                       # number of ReadReq MSHR miss ticks (Tick)
board.cache_hierarchy.iptw_caches0.ReadReq.mshrMissRate::processor.cores0.core.mmu.itb.walker     0.152299                       # mshr miss rate for ReadReq accesses (Ratio)
board.cache_hierarchy.iptw_caches0.ReadReq.mshrMissRate::total     0.152299                       # mshr miss rate for ReadReq accesses (Ratio)
board.cache_hierarchy.iptw_caches0.ReadReq.avgMshrMissLatency::processor.cores0.core.mmu.itb.walker 60452.830189                       # average ReadReq mshr miss latency ((Tick/Count))
board.cache_hierarchy.iptw_caches0.ReadReq.avgMshrMissLatency::total 60452.830189                       # average ReadReq mshr miss latency ((Tick/Count))
board.cache_hierarchy.iptw_caches0.power_state.pwrStateResidencyTicks::UNDEFINED 100835718391000                       # Cumulative time (in ticks) in various power states (Tick)
board.cache_hierarchy.iptw_caches0.tags.tagsInUse    67.855838                       # Average ticks per tags in use ((Tick/Count))
board.cache_hierarchy.iptw_caches0.tags.totalRefs          159                       # Total number of references to valid blocks. (Count)
board.cache_hierarchy.iptw_caches0.tags.sampledRefs           13                       # Sample count of references to valid blocks. (Count)
board.cache_hierarchy.iptw_caches0.tags.avgRefs    12.230769                       # Average number of references to valid blocks. ((Count/Count))
board.cache_hierarchy.iptw_caches0.tags.warmupTick            0                       # The tick when the warmup percentage was hit. (Tick)
board.cache_hierarchy.iptw_caches0.tags.occupancies::processor.cores0.core.mmu.itb.walker    67.855838                       # Average occupied blocks per tick, per requestor ((Count/Tick))
board.cache_hierarchy.iptw_caches0.tags.avgOccs::processor.cores0.core.mmu.itb.walker     0.530124                       # Average percentage of cache occupancy ((Ratio/Tick))
board.cache_hierarchy.iptw_caches0.tags.avgOccs::total     0.530124                       # Average percentage of cache occupancy ((Ratio/Tick))
board.cache_hierarchy.iptw_caches0.tags.occupanciesTaskId::1024           68                       # Occupied blocks per task id (Count)
board.cache_hierarchy.iptw_caches0.tags.ageTaskId_1024::4           68                       # Occupied blocks per task id, per block age (Count)
board.cache_hierarchy.iptw_caches0.tags.ratioOccsTaskId::1024     0.531250                       # Ratio of occupied blocks and all blocks, per task id (Ratio)
board.cache_hierarchy.iptw_caches0.tags.tagAccesses         1445                       # Number of tag accesses (Count)
board.cache_hierarchy.iptw_caches0.tags.dataAccesses         1445                       # Number of data accesses (Count)
board.cache_hierarchy.iptw_caches0.tags.power_state.pwrStateResidencyTicks::UNDEFINED 100835718391000                       # Cumulative time (in ticks) in various power states (Tick)
board.cache_hierarchy.iptw_caches1.demandHits::processor.cores1.core.mmu.itb.walker           29                       # number of demand (read+write) hits (Count)
board.cache_hierarchy.iptw_caches1.demandHits::total           29                       # number of demand (read+write) hits (Count)
board.cache_hierarchy.iptw_caches1.overallHits::processor.cores1.core.mmu.itb.walker           29                       # number of overall hits (Count)
board.cache_hierarchy.iptw_caches1.overallHits::total           29                       # number of overall hits (Count)
board.cache_hierarchy.iptw_caches1.demandMisses::processor.cores1.core.mmu.itb.walker            1                       # number of demand (read+write) misses (Count)
board.cache_hierarchy.iptw_caches1.demandMisses::total            1                       # number of demand (read+write) misses (Count)
board.cache_hierarchy.iptw_caches1.overallMisses::processor.cores1.core.mmu.itb.walker            1                       # number of overall misses (Count)
board.cache_hierarchy.iptw_caches1.overallMisses::total            1                       # number of overall misses (Count)
board.cache_hierarchy.iptw_caches1.demandMissLatency::processor.cores1.core.mmu.itb.walker        29000                       # number of demand (read+write) miss ticks (Tick)
board.cache_hierarchy.iptw_caches1.demandMissLatency::total        29000                       # number of demand (read+write) miss ticks (Tick)
board.cache_hierarchy.iptw_caches1.overallMissLatency::processor.cores1.core.mmu.itb.walker        29000                       # number of overall miss ticks (Tick)
board.cache_hierarchy.iptw_caches1.overallMissLatency::total        29000                       # number of overall miss ticks (Tick)
board.cache_hierarchy.iptw_caches1.demandAccesses::processor.cores1.core.mmu.itb.walker           30                       # number of demand (read+write) accesses (Count)
board.cache_hierarchy.iptw_caches1.demandAccesses::total           30                       # number of demand (read+write) accesses (Count)
board.cache_hierarchy.iptw_caches1.overallAccesses::processor.cores1.core.mmu.itb.walker           30                       # number of overall (read+write) accesses (Count)
board.cache_hierarchy.iptw_caches1.overallAccesses::total           30                       # number of overall (read+write) accesses (Count)
board.cache_hierarchy.iptw_caches1.demandMissRate::processor.cores1.core.mmu.itb.walker     0.033333                       # miss rate for demand accesses (Ratio)
board.cache_hierarchy.iptw_caches1.demandMissRate::total     0.033333                       # miss rate for demand accesses (Ratio)
board.cache_hierarchy.iptw_caches1.overallMissRate::processor.cores1.core.mmu.itb.walker     0.033333                       # miss rate for overall accesses (Ratio)
board.cache_hierarchy.iptw_caches1.overallMissRate::total     0.033333                       # miss rate for overall accesses (Ratio)
board.cache_hierarchy.iptw_caches1.demandAvgMissLatency::processor.cores1.core.mmu.itb.walker        29000                       # average overall miss latency in ticks ((Tick/Count))
board.cache_hierarchy.iptw_caches1.demandAvgMissLatency::total        29000                       # average overall miss latency in ticks ((Tick/Count))
board.cache_hierarchy.iptw_caches1.overallAvgMissLatency::processor.cores1.core.mmu.itb.walker        29000                       # average overall miss latency ((Tick/Count))
board.cache_hierarchy.iptw_caches1.overallAvgMissLatency::total        29000                       # average overall miss latency ((Tick/Count))
board.cache_hierarchy.iptw_caches1.blockedCycles::no_mshrs            0                       # number of cycles access was blocked (Cycle)
board.cache_hierarchy.iptw_caches1.blockedCycles::no_targets            0                       # number of cycles access was blocked (Cycle)
board.cache_hierarchy.iptw_caches1.blockedCauses::no_mshrs            0                       # number of times access was blocked (Count)
board.cache_hierarchy.iptw_caches1.blockedCauses::no_targets            0                       # number of times access was blocked (Count)
board.cache_hierarchy.iptw_caches1.avgBlocked::no_mshrs          nan                       # average number of cycles each access was blocked ((Cycle/Count))
board.cache_hierarchy.iptw_caches1.avgBlocked::no_targets          nan                       # average number of cycles each access was blocked ((Cycle/Count))
board.cache_hierarchy.iptw_caches1.demandMshrMisses::processor.cores1.core.mmu.itb.walker            1                       # number of demand (read+write) MSHR misses (Count)
board.cache_hierarchy.iptw_caches1.demandMshrMisses::total            1                       # number of demand (read+write) MSHR misses (Count)
board.cache_hierarchy.iptw_caches1.overallMshrMisses::processor.cores1.core.mmu.itb.walker            1                       # number of overall MSHR misses (Count)
board.cache_hierarchy.iptw_caches1.overallMshrMisses::total            1                       # number of overall MSHR misses (Count)
board.cache_hierarchy.iptw_caches1.demandMshrMissLatency::processor.cores1.core.mmu.itb.walker        28000                       # number of demand (read+write) MSHR miss ticks (Tick)
board.cache_hierarchy.iptw_caches1.demandMshrMissLatency::total        28000                       # number of demand (read+write) MSHR miss ticks (Tick)
board.cache_hierarchy.iptw_caches1.overallMshrMissLatency::processor.cores1.core.mmu.itb.walker        28000                       # number of overall MSHR miss ticks (Tick)
board.cache_hierarchy.iptw_caches1.overallMshrMissLatency::total        28000                       # number of overall MSHR miss ticks (Tick)
board.cache_hierarchy.iptw_caches1.demandMshrMissRate::processor.cores1.core.mmu.itb.walker     0.033333                       # mshr miss ratio for demand accesses (Ratio)
board.cache_hierarchy.iptw_caches1.demandMshrMissRate::total     0.033333                       # mshr miss ratio for demand accesses (Ratio)
board.cache_hierarchy.iptw_caches1.overallMshrMissRate::processor.cores1.core.mmu.itb.walker     0.033333                       # mshr miss ratio for overall accesses (Ratio)
board.cache_hierarchy.iptw_caches1.overallMshrMissRate::total     0.033333                       # mshr miss ratio for overall accesses (Ratio)
board.cache_hierarchy.iptw_caches1.demandAvgMshrMissLatency::processor.cores1.core.mmu.itb.walker        28000                       # average overall mshr miss latency ((Tick/Count))
board.cache_hierarchy.iptw_caches1.demandAvgMshrMissLatency::total        28000                       # average overall mshr miss latency ((Tick/Count))
board.cache_hierarchy.iptw_caches1.overallAvgMshrMissLatency::processor.cores1.core.mmu.itb.walker        28000                       # average overall mshr miss latency ((Tick/Count))
board.cache_hierarchy.iptw_caches1.overallAvgMshrMissLatency::total        28000                       # average overall mshr miss latency ((Tick/Count))
board.cache_hierarchy.iptw_caches1.replacements            0                       # number of replacements (Count)
board.cache_hierarchy.iptw_caches1.ReadReq.hits::processor.cores1.core.mmu.itb.walker           29                       # number of ReadReq hits (Count)
board.cache_hierarchy.iptw_caches1.ReadReq.hits::total           29                       # number of ReadReq hits (Count)
board.cache_hierarchy.iptw_caches1.ReadReq.misses::processor.cores1.core.mmu.itb.walker            1                       # number of ReadReq misses (Count)
board.cache_hierarchy.iptw_caches1.ReadReq.misses::total            1                       # number of ReadReq misses (Count)
board.cache_hierarchy.iptw_caches1.ReadReq.missLatency::processor.cores1.core.mmu.itb.walker        29000                       # number of ReadReq miss ticks (Tick)
board.cache_hierarchy.iptw_caches1.ReadReq.missLatency::total        29000                       # number of ReadReq miss ticks (Tick)
board.cache_hierarchy.iptw_caches1.ReadReq.accesses::processor.cores1.core.mmu.itb.walker           30                       # number of ReadReq accesses(hits+misses) (Count)
board.cache_hierarchy.iptw_caches1.ReadReq.accesses::total           30                       # number of ReadReq accesses(hits+misses) (Count)
board.cache_hierarchy.iptw_caches1.ReadReq.missRate::processor.cores1.core.mmu.itb.walker     0.033333                       # miss rate for ReadReq accesses (Ratio)
board.cache_hierarchy.iptw_caches1.ReadReq.missRate::total     0.033333                       # miss rate for ReadReq accesses (Ratio)
board.cache_hierarchy.iptw_caches1.ReadReq.avgMissLatency::processor.cores1.core.mmu.itb.walker        29000                       # average ReadReq miss latency ((Tick/Count))
board.cache_hierarchy.iptw_caches1.ReadReq.avgMissLatency::total        29000                       # average ReadReq miss latency ((Tick/Count))
board.cache_hierarchy.iptw_caches1.ReadReq.mshrMisses::processor.cores1.core.mmu.itb.walker            1                       # number of ReadReq MSHR misses (Count)
board.cache_hierarchy.iptw_caches1.ReadReq.mshrMisses::total            1                       # number of ReadReq MSHR misses (Count)
board.cache_hierarchy.iptw_caches1.ReadReq.mshrMissLatency::processor.cores1.core.mmu.itb.walker        28000                       # number of ReadReq MSHR miss ticks (Tick)
board.cache_hierarchy.iptw_caches1.ReadReq.mshrMissLatency::total        28000                       # number of ReadReq MSHR miss ticks (Tick)
board.cache_hierarchy.iptw_caches1.ReadReq.mshrMissRate::processor.cores1.core.mmu.itb.walker     0.033333                       # mshr miss rate for ReadReq accesses (Ratio)
board.cache_hierarchy.iptw_caches1.ReadReq.mshrMissRate::total     0.033333                       # mshr miss rate for ReadReq accesses (Ratio)
board.cache_hierarchy.iptw_caches1.ReadReq.avgMshrMissLatency::processor.cores1.core.mmu.itb.walker        28000                       # average ReadReq mshr miss latency ((Tick/Count))
board.cache_hierarchy.iptw_caches1.ReadReq.avgMshrMissLatency::total        28000                       # average ReadReq mshr miss latency ((Tick/Count))
board.cache_hierarchy.iptw_caches1.power_state.pwrStateResidencyTicks::UNDEFINED 100835718391000                       # Cumulative time (in ticks) in various power states (Tick)
board.cache_hierarchy.iptw_caches1.tags.tagsInUse    17.999971                       # Average ticks per tags in use ((Tick/Count))
board.cache_hierarchy.iptw_caches1.tags.totalRefs            7                       # Total number of references to valid blocks. (Count)
board.cache_hierarchy.iptw_caches1.tags.sampledRefs            1                       # Sample count of references to valid blocks. (Count)
board.cache_hierarchy.iptw_caches1.tags.avgRefs            7                       # Average number of references to valid blocks. ((Count/Count))
board.cache_hierarchy.iptw_caches1.tags.warmupTick            0                       # The tick when the warmup percentage was hit. (Tick)
board.cache_hierarchy.iptw_caches1.tags.occupancies::processor.cores1.core.mmu.itb.walker    17.999971                       # Average occupied blocks per tick, per requestor ((Count/Tick))
board.cache_hierarchy.iptw_caches1.tags.avgOccs::processor.cores1.core.mmu.itb.walker     0.140625                       # Average percentage of cache occupancy ((Ratio/Tick))
board.cache_hierarchy.iptw_caches1.tags.avgOccs::total     0.140625                       # Average percentage of cache occupancy ((Ratio/Tick))
board.cache_hierarchy.iptw_caches1.tags.occupanciesTaskId::1024           18                       # Occupied blocks per task id (Count)
board.cache_hierarchy.iptw_caches1.tags.ageTaskId_1024::4           18                       # Occupied blocks per task id, per block age (Count)
board.cache_hierarchy.iptw_caches1.tags.ratioOccsTaskId::1024     0.140625                       # Ratio of occupied blocks and all blocks, per task id (Ratio)
board.cache_hierarchy.iptw_caches1.tags.tagAccesses          121                       # Number of tag accesses (Count)
board.cache_hierarchy.iptw_caches1.tags.dataAccesses          121                       # Number of data accesses (Count)
board.cache_hierarchy.iptw_caches1.tags.power_state.pwrStateResidencyTicks::UNDEFINED 100835718391000                       # Cumulative time (in ticks) in various power states (Tick)
board.cache_hierarchy.l1dcaches0.demandHits::processor.cores0.core.data     82172175                       # number of demand (read+write) hits (Count)
board.cache_hierarchy.l1dcaches0.demandHits::total     82172175                       # number of demand (read+write) hits (Count)
board.cache_hierarchy.l1dcaches0.overallHits::processor.cores0.core.data     82172175                       # number of overall hits (Count)
board.cache_hierarchy.l1dcaches0.overallHits::total     82172175                       # number of overall hits (Count)
board.cache_hierarchy.l1dcaches0.demandMisses::processor.cores0.core.data      1083861                       # number of demand (read+write) misses (Count)
board.cache_hierarchy.l1dcaches0.demandMisses::total      1083861                       # number of demand (read+write) misses (Count)
board.cache_hierarchy.l1dcaches0.overallMisses::processor.cores0.core.data      1083861                       # number of overall misses (Count)
board.cache_hierarchy.l1dcaches0.overallMisses::total      1083861                       # number of overall misses (Count)
board.cache_hierarchy.l1dcaches0.demandMissLatency::processor.cores0.core.data  32559874000                       # number of demand (read+write) miss ticks (Tick)
board.cache_hierarchy.l1dcaches0.demandMissLatency::total  32559874000                       # number of demand (read+write) miss ticks (Tick)
board.cache_hierarchy.l1dcaches0.overallMissLatency::processor.cores0.core.data  32559874000                       # number of overall miss ticks (Tick)
board.cache_hierarchy.l1dcaches0.overallMissLatency::total  32559874000                       # number of overall miss ticks (Tick)
board.cache_hierarchy.l1dcaches0.demandAccesses::processor.cores0.core.data     83256036                       # number of demand (read+write) accesses (Count)
board.cache_hierarchy.l1dcaches0.demandAccesses::total     83256036                       # number of demand (read+write) accesses (Count)
board.cache_hierarchy.l1dcaches0.overallAccesses::processor.cores0.core.data     83256036                       # number of overall (read+write) accesses (Count)
board.cache_hierarchy.l1dcaches0.overallAccesses::total     83256036                       # number of overall (read+write) accesses (Count)
board.cache_hierarchy.l1dcaches0.demandMissRate::processor.cores0.core.data     0.013018                       # miss rate for demand accesses (Ratio)
board.cache_hierarchy.l1dcaches0.demandMissRate::total     0.013018                       # miss rate for demand accesses (Ratio)
board.cache_hierarchy.l1dcaches0.overallMissRate::processor.cores0.core.data     0.013018                       # miss rate for overall accesses (Ratio)
board.cache_hierarchy.l1dcaches0.overallMissRate::total     0.013018                       # miss rate for overall accesses (Ratio)
board.cache_hierarchy.l1dcaches0.demandAvgMissLatency::processor.cores0.core.data 30040.636207                       # average overall miss latency in ticks ((Tick/Count))
board.cache_hierarchy.l1dcaches0.demandAvgMissLatency::total 30040.636207                       # average overall miss latency in ticks ((Tick/Count))
board.cache_hierarchy.l1dcaches0.overallAvgMissLatency::processor.cores0.core.data 30040.636207                       # average overall miss latency ((Tick/Count))
board.cache_hierarchy.l1dcaches0.overallAvgMissLatency::total 30040.636207                       # average overall miss latency ((Tick/Count))
board.cache_hierarchy.l1dcaches0.blockedCycles::no_mshrs            0                       # number of cycles access was blocked (Cycle)
board.cache_hierarchy.l1dcaches0.blockedCycles::no_targets            0                       # number of cycles access was blocked (Cycle)
board.cache_hierarchy.l1dcaches0.blockedCauses::no_mshrs            0                       # number of times access was blocked (Count)
board.cache_hierarchy.l1dcaches0.blockedCauses::no_targets            0                       # number of times access was blocked (Count)
board.cache_hierarchy.l1dcaches0.avgBlocked::no_mshrs          nan                       # average number of cycles each access was blocked ((Cycle/Count))
board.cache_hierarchy.l1dcaches0.avgBlocked::no_targets          nan                       # average number of cycles each access was blocked ((Cycle/Count))
board.cache_hierarchy.l1dcaches0.writebacks::writebacks         8118                       # number of writebacks (Count)
board.cache_hierarchy.l1dcaches0.writebacks::total         8118                       # number of writebacks (Count)
board.cache_hierarchy.l1dcaches0.demandMshrHits::processor.cores0.core.data            4                       # number of demand (read+write) MSHR hits (Count)
board.cache_hierarchy.l1dcaches0.demandMshrHits::total            4                       # number of demand (read+write) MSHR hits (Count)
board.cache_hierarchy.l1dcaches0.overallMshrHits::processor.cores0.core.data            4                       # number of overall MSHR hits (Count)
board.cache_hierarchy.l1dcaches0.overallMshrHits::total            4                       # number of overall MSHR hits (Count)
board.cache_hierarchy.l1dcaches0.demandMshrMisses::processor.cores0.core.data      1083857                       # number of demand (read+write) MSHR misses (Count)
board.cache_hierarchy.l1dcaches0.demandMshrMisses::total      1083857                       # number of demand (read+write) MSHR misses (Count)
board.cache_hierarchy.l1dcaches0.overallMshrMisses::cache_hierarchy.l1dcaches0.prefetcher          704                       # number of overall MSHR misses (Count)
board.cache_hierarchy.l1dcaches0.overallMshrMisses::processor.cores0.core.data      1083857                       # number of overall MSHR misses (Count)
board.cache_hierarchy.l1dcaches0.overallMshrMisses::total      1084561                       # number of overall MSHR misses (Count)
board.cache_hierarchy.l1dcaches0.overallMshrUncacheable::processor.cores0.core.data          110                       # number of overall MSHR uncacheable misses (Count)
board.cache_hierarchy.l1dcaches0.overallMshrUncacheable::total          110                       # number of overall MSHR uncacheable misses (Count)
board.cache_hierarchy.l1dcaches0.demandMshrMissLatency::processor.cores0.core.data  31475846000                       # number of demand (read+write) MSHR miss ticks (Tick)
board.cache_hierarchy.l1dcaches0.demandMshrMissLatency::total  31475846000                       # number of demand (read+write) MSHR miss ticks (Tick)
board.cache_hierarchy.l1dcaches0.overallMshrMissLatency::cache_hierarchy.l1dcaches0.prefetcher     33542126                       # number of overall MSHR miss ticks (Tick)
board.cache_hierarchy.l1dcaches0.overallMshrMissLatency::processor.cores0.core.data  31475846000                       # number of overall MSHR miss ticks (Tick)
board.cache_hierarchy.l1dcaches0.overallMshrMissLatency::total  31509388126                       # number of overall MSHR miss ticks (Tick)
board.cache_hierarchy.l1dcaches0.overallMshrUncacheableLatency::processor.cores0.core.data       375000                       # number of overall MSHR uncacheable ticks (Tick)
board.cache_hierarchy.l1dcaches0.overallMshrUncacheableLatency::total       375000                       # number of overall MSHR uncacheable ticks (Tick)
board.cache_hierarchy.l1dcaches0.demandMshrMissRate::processor.cores0.core.data     0.013018                       # mshr miss ratio for demand accesses (Ratio)
board.cache_hierarchy.l1dcaches0.demandMshrMissRate::total     0.013018                       # mshr miss ratio for demand accesses (Ratio)
board.cache_hierarchy.l1dcaches0.overallMshrMissRate::cache_hierarchy.l1dcaches0.prefetcher          inf                       # mshr miss ratio for overall accesses (Ratio)
board.cache_hierarchy.l1dcaches0.overallMshrMissRate::processor.cores0.core.data     0.013018                       # mshr miss ratio for overall accesses (Ratio)
board.cache_hierarchy.l1dcaches0.overallMshrMissRate::total     0.013027                       # mshr miss ratio for overall accesses (Ratio)
board.cache_hierarchy.l1dcaches0.demandAvgMshrMissLatency::processor.cores0.core.data 29040.589303                       # average overall mshr miss latency ((Tick/Count))
board.cache_hierarchy.l1dcaches0.demandAvgMshrMissLatency::total 29040.589303                       # average overall mshr miss latency ((Tick/Count))
board.cache_hierarchy.l1dcaches0.overallAvgMshrMissLatency::cache_hierarchy.l1dcaches0.prefetcher 47645.065341                       # average overall mshr miss latency ((Tick/Count))
board.cache_hierarchy.l1dcaches0.overallAvgMshrMissLatency::processor.cores0.core.data 29040.589303                       # average overall mshr miss latency ((Tick/Count))
board.cache_hierarchy.l1dcaches0.overallAvgMshrMissLatency::total 29052.665665                       # average overall mshr miss latency ((Tick/Count))
board.cache_hierarchy.l1dcaches0.overallAvgMshrUncacheableLatency::processor.cores0.core.data  3409.090909                       # average overall mshr uncacheable latency ((Tick/Count))
board.cache_hierarchy.l1dcaches0.overallAvgMshrUncacheableLatency::total  3409.090909                       # average overall mshr uncacheable latency ((Tick/Count))
board.cache_hierarchy.l1dcaches0.replacements        10645                       # number of replacements (Count)
board.cache_hierarchy.l1dcaches0.HardPFReq.mshrMisses::cache_hierarchy.l1dcaches0.prefetcher          704                       # number of HardPFReq MSHR misses (Count)
board.cache_hierarchy.l1dcaches0.HardPFReq.mshrMisses::total          704                       # number of HardPFReq MSHR misses (Count)
board.cache_hierarchy.l1dcaches0.HardPFReq.mshrMissLatency::cache_hierarchy.l1dcaches0.prefetcher     33542126                       # number of HardPFReq MSHR miss ticks (Tick)
board.cache_hierarchy.l1dcaches0.HardPFReq.mshrMissLatency::total     33542126                       # number of HardPFReq MSHR miss ticks (Tick)
board.cache_hierarchy.l1dcaches0.HardPFReq.mshrMissRate::cache_hierarchy.l1dcaches0.prefetcher          inf                       # mshr miss rate for HardPFReq accesses (Ratio)
board.cache_hierarchy.l1dcaches0.HardPFReq.mshrMissRate::total          inf                       # mshr miss rate for HardPFReq accesses (Ratio)
board.cache_hierarchy.l1dcaches0.HardPFReq.avgMshrMissLatency::cache_hierarchy.l1dcaches0.prefetcher 47645.065341                       # average HardPFReq mshr miss latency ((Tick/Count))
board.cache_hierarchy.l1dcaches0.HardPFReq.avgMshrMissLatency::total 47645.065341                       # average HardPFReq mshr miss latency ((Tick/Count))
board.cache_hierarchy.l1dcaches0.LoadLockedReq.hits::processor.cores0.core.data       266445                       # number of LoadLockedReq hits (Count)
board.cache_hierarchy.l1dcaches0.LoadLockedReq.hits::total       266445                       # number of LoadLockedReq hits (Count)
board.cache_hierarchy.l1dcaches0.LoadLockedReq.misses::processor.cores0.core.data       247587                       # number of LoadLockedReq misses (Count)
board.cache_hierarchy.l1dcaches0.LoadLockedReq.misses::total       247587                       # number of LoadLockedReq misses (Count)
board.cache_hierarchy.l1dcaches0.LoadLockedReq.missLatency::processor.cores0.core.data   7188504000                       # number of LoadLockedReq miss ticks (Tick)
board.cache_hierarchy.l1dcaches0.LoadLockedReq.missLatency::total   7188504000                       # number of LoadLockedReq miss ticks (Tick)
board.cache_hierarchy.l1dcaches0.LoadLockedReq.accesses::processor.cores0.core.data       514032                       # number of LoadLockedReq accesses(hits+misses) (Count)
board.cache_hierarchy.l1dcaches0.LoadLockedReq.accesses::total       514032                       # number of LoadLockedReq accesses(hits+misses) (Count)
board.cache_hierarchy.l1dcaches0.LoadLockedReq.missRate::processor.cores0.core.data     0.481657                       # miss rate for LoadLockedReq accesses (Ratio)
board.cache_hierarchy.l1dcaches0.LoadLockedReq.missRate::total     0.481657                       # miss rate for LoadLockedReq accesses (Ratio)
board.cache_hierarchy.l1dcaches0.LoadLockedReq.avgMissLatency::processor.cores0.core.data 29034.254626                       # average LoadLockedReq miss latency ((Tick/Count))
board.cache_hierarchy.l1dcaches0.LoadLockedReq.avgMissLatency::total 29034.254626                       # average LoadLockedReq miss latency ((Tick/Count))
board.cache_hierarchy.l1dcaches0.LoadLockedReq.mshrMisses::processor.cores0.core.data       247587                       # number of LoadLockedReq MSHR misses (Count)
board.cache_hierarchy.l1dcaches0.LoadLockedReq.mshrMisses::total       247587                       # number of LoadLockedReq MSHR misses (Count)
board.cache_hierarchy.l1dcaches0.LoadLockedReq.mshrMissLatency::processor.cores0.core.data   6940917000                       # number of LoadLockedReq MSHR miss ticks (Tick)
board.cache_hierarchy.l1dcaches0.LoadLockedReq.mshrMissLatency::total   6940917000                       # number of LoadLockedReq MSHR miss ticks (Tick)
board.cache_hierarchy.l1dcaches0.LoadLockedReq.mshrMissRate::processor.cores0.core.data     0.481657                       # mshr miss rate for LoadLockedReq accesses (Ratio)
board.cache_hierarchy.l1dcaches0.LoadLockedReq.mshrMissRate::total     0.481657                       # mshr miss rate for LoadLockedReq accesses (Ratio)
board.cache_hierarchy.l1dcaches0.LoadLockedReq.avgMshrMissLatency::processor.cores0.core.data 28034.254626                       # average LoadLockedReq mshr miss latency ((Tick/Count))
board.cache_hierarchy.l1dcaches0.LoadLockedReq.avgMshrMissLatency::total 28034.254626                       # average LoadLockedReq mshr miss latency ((Tick/Count))
board.cache_hierarchy.l1dcaches0.ReadReq.hits::processor.cores0.core.data     46139041                       # number of ReadReq hits (Count)
board.cache_hierarchy.l1dcaches0.ReadReq.hits::total     46139041                       # number of ReadReq hits (Count)
board.cache_hierarchy.l1dcaches0.ReadReq.misses::processor.cores0.core.data       496175                       # number of ReadReq misses (Count)
board.cache_hierarchy.l1dcaches0.ReadReq.misses::total       496175                       # number of ReadReq misses (Count)
board.cache_hierarchy.l1dcaches0.ReadReq.missLatency::processor.cores0.core.data  14894528000                       # number of ReadReq miss ticks (Tick)
board.cache_hierarchy.l1dcaches0.ReadReq.missLatency::total  14894528000                       # number of ReadReq miss ticks (Tick)
board.cache_hierarchy.l1dcaches0.ReadReq.accesses::processor.cores0.core.data     46635216                       # number of ReadReq accesses(hits+misses) (Count)
board.cache_hierarchy.l1dcaches0.ReadReq.accesses::total     46635216                       # number of ReadReq accesses(hits+misses) (Count)
board.cache_hierarchy.l1dcaches0.ReadReq.missRate::processor.cores0.core.data     0.010639                       # miss rate for ReadReq accesses (Ratio)
board.cache_hierarchy.l1dcaches0.ReadReq.missRate::total     0.010639                       # miss rate for ReadReq accesses (Ratio)
board.cache_hierarchy.l1dcaches0.ReadReq.avgMissLatency::processor.cores0.core.data 30018.699048                       # average ReadReq miss latency ((Tick/Count))
board.cache_hierarchy.l1dcaches0.ReadReq.avgMissLatency::total 30018.699048                       # average ReadReq miss latency ((Tick/Count))
board.cache_hierarchy.l1dcaches0.ReadReq.mshrMisses::processor.cores0.core.data       496175                       # number of ReadReq MSHR misses (Count)
board.cache_hierarchy.l1dcaches0.ReadReq.mshrMisses::total       496175                       # number of ReadReq MSHR misses (Count)
board.cache_hierarchy.l1dcaches0.ReadReq.mshrUncacheable::processor.cores0.core.data            3                       # number of ReadReq MSHR uncacheable (Count)
board.cache_hierarchy.l1dcaches0.ReadReq.mshrUncacheable::total            3                       # number of ReadReq MSHR uncacheable (Count)
board.cache_hierarchy.l1dcaches0.ReadReq.mshrMissLatency::processor.cores0.core.data  14398353000                       # number of ReadReq MSHR miss ticks (Tick)
board.cache_hierarchy.l1dcaches0.ReadReq.mshrMissLatency::total  14398353000                       # number of ReadReq MSHR miss ticks (Tick)
board.cache_hierarchy.l1dcaches0.ReadReq.mshrUncacheableLatency::processor.cores0.core.data       375000                       # number of ReadReq MSHR uncacheable ticks (Tick)
board.cache_hierarchy.l1dcaches0.ReadReq.mshrUncacheableLatency::total       375000                       # number of ReadReq MSHR uncacheable ticks (Tick)
board.cache_hierarchy.l1dcaches0.ReadReq.mshrMissRate::processor.cores0.core.data     0.010639                       # mshr miss rate for ReadReq accesses (Ratio)
board.cache_hierarchy.l1dcaches0.ReadReq.mshrMissRate::total     0.010639                       # mshr miss rate for ReadReq accesses (Ratio)
board.cache_hierarchy.l1dcaches0.ReadReq.avgMshrMissLatency::processor.cores0.core.data 29018.699048                       # average ReadReq mshr miss latency ((Tick/Count))
board.cache_hierarchy.l1dcaches0.ReadReq.avgMshrMissLatency::total 29018.699048                       # average ReadReq mshr miss latency ((Tick/Count))
board.cache_hierarchy.l1dcaches0.ReadReq.avgMshrUncacheableLatency::processor.cores0.core.data       125000                       # average ReadReq mshr uncacheable latency ((Tick/Count))
board.cache_hierarchy.l1dcaches0.ReadReq.avgMshrUncacheableLatency::total       125000                       # average ReadReq mshr uncacheable latency ((Tick/Count))
board.cache_hierarchy.l1dcaches0.StoreCondFailReq.missLatency::processor.cores0.core.data    171525000                       # number of StoreCondFailReq miss ticks (Tick)
board.cache_hierarchy.l1dcaches0.StoreCondFailReq.missLatency::total    171525000                       # number of StoreCondFailReq miss ticks (Tick)
board.cache_hierarchy.l1dcaches0.StoreCondFailReq.avgMissLatency::processor.cores0.core.data          inf                       # average StoreCondFailReq miss latency ((Tick/Count))
board.cache_hierarchy.l1dcaches0.StoreCondFailReq.avgMissLatency::total          inf                       # average StoreCondFailReq miss latency ((Tick/Count))
board.cache_hierarchy.l1dcaches0.StoreCondFailReq.mshrMissLatency::processor.cores0.core.data    167490000                       # number of StoreCondFailReq MSHR miss ticks (Tick)
board.cache_hierarchy.l1dcaches0.StoreCondFailReq.mshrMissLatency::total    167490000                       # number of StoreCondFailReq MSHR miss ticks (Tick)
board.cache_hierarchy.l1dcaches0.StoreCondFailReq.avgMshrMissLatency::processor.cores0.core.data          inf                       # average StoreCondFailReq mshr miss latency ((Tick/Count))
board.cache_hierarchy.l1dcaches0.StoreCondFailReq.avgMshrMissLatency::total          inf                       # average StoreCondFailReq mshr miss latency ((Tick/Count))
board.cache_hierarchy.l1dcaches0.StoreCondReq.hits::processor.cores0.core.data       161965                       # number of StoreCondReq hits (Count)
board.cache_hierarchy.l1dcaches0.StoreCondReq.hits::total       161965                       # number of StoreCondReq hits (Count)
board.cache_hierarchy.l1dcaches0.StoreCondReq.misses::processor.cores0.core.data       290333                       # number of StoreCondReq misses (Count)
board.cache_hierarchy.l1dcaches0.StoreCondReq.misses::total       290333                       # number of StoreCondReq misses (Count)
board.cache_hierarchy.l1dcaches0.StoreCondReq.missLatency::processor.cores0.core.data   8329690000                       # number of StoreCondReq miss ticks (Tick)
board.cache_hierarchy.l1dcaches0.StoreCondReq.missLatency::total   8329690000                       # number of StoreCondReq miss ticks (Tick)
board.cache_hierarchy.l1dcaches0.StoreCondReq.accesses::processor.cores0.core.data       452298                       # number of StoreCondReq accesses(hits+misses) (Count)
board.cache_hierarchy.l1dcaches0.StoreCondReq.accesses::total       452298                       # number of StoreCondReq accesses(hits+misses) (Count)
board.cache_hierarchy.l1dcaches0.StoreCondReq.missRate::processor.cores0.core.data     0.641906                       # miss rate for StoreCondReq accesses (Ratio)
board.cache_hierarchy.l1dcaches0.StoreCondReq.missRate::total     0.641906                       # miss rate for StoreCondReq accesses (Ratio)
board.cache_hierarchy.l1dcaches0.StoreCondReq.avgMissLatency::processor.cores0.core.data 28690.124788                       # average StoreCondReq miss latency ((Tick/Count))
board.cache_hierarchy.l1dcaches0.StoreCondReq.avgMissLatency::total 28690.124788                       # average StoreCondReq miss latency ((Tick/Count))
board.cache_hierarchy.l1dcaches0.StoreCondReq.mshrMisses::processor.cores0.core.data       290333                       # number of StoreCondReq MSHR misses (Count)
board.cache_hierarchy.l1dcaches0.StoreCondReq.mshrMisses::total       290333                       # number of StoreCondReq MSHR misses (Count)
board.cache_hierarchy.l1dcaches0.StoreCondReq.mshrMissLatency::processor.cores0.core.data   8043392000                       # number of StoreCondReq MSHR miss ticks (Tick)
board.cache_hierarchy.l1dcaches0.StoreCondReq.mshrMissLatency::total   8043392000                       # number of StoreCondReq MSHR miss ticks (Tick)
board.cache_hierarchy.l1dcaches0.StoreCondReq.mshrMissRate::processor.cores0.core.data     0.641906                       # mshr miss rate for StoreCondReq accesses (Ratio)
board.cache_hierarchy.l1dcaches0.StoreCondReq.mshrMissRate::total     0.641906                       # mshr miss rate for StoreCondReq accesses (Ratio)
board.cache_hierarchy.l1dcaches0.StoreCondReq.avgMshrMissLatency::processor.cores0.core.data 27704.022622                       # average StoreCondReq mshr miss latency ((Tick/Count))
board.cache_hierarchy.l1dcaches0.StoreCondReq.avgMshrMissLatency::total 27704.022622                       # average StoreCondReq mshr miss latency ((Tick/Count))
board.cache_hierarchy.l1dcaches0.SwapReq.hits::processor.cores0.core.data       376540                       # number of SwapReq hits (Count)
board.cache_hierarchy.l1dcaches0.SwapReq.hits::total       376540                       # number of SwapReq hits (Count)
board.cache_hierarchy.l1dcaches0.SwapReq.misses::processor.cores0.core.data        72242                       # number of SwapReq misses (Count)
board.cache_hierarchy.l1dcaches0.SwapReq.misses::total        72242                       # number of SwapReq misses (Count)
board.cache_hierarchy.l1dcaches0.SwapReq.missLatency::processor.cores0.core.data   2456057000                       # number of SwapReq miss ticks (Tick)
board.cache_hierarchy.l1dcaches0.SwapReq.missLatency::total   2456057000                       # number of SwapReq miss ticks (Tick)
board.cache_hierarchy.l1dcaches0.SwapReq.accesses::processor.cores0.core.data       448782                       # number of SwapReq accesses(hits+misses) (Count)
board.cache_hierarchy.l1dcaches0.SwapReq.accesses::total       448782                       # number of SwapReq accesses(hits+misses) (Count)
board.cache_hierarchy.l1dcaches0.SwapReq.missRate::processor.cores0.core.data     0.160973                       # miss rate for SwapReq accesses (Ratio)
board.cache_hierarchy.l1dcaches0.SwapReq.missRate::total     0.160973                       # miss rate for SwapReq accesses (Ratio)
board.cache_hierarchy.l1dcaches0.SwapReq.avgMissLatency::processor.cores0.core.data 33997.632956                       # average SwapReq miss latency ((Tick/Count))
board.cache_hierarchy.l1dcaches0.SwapReq.avgMissLatency::total 33997.632956                       # average SwapReq miss latency ((Tick/Count))
board.cache_hierarchy.l1dcaches0.SwapReq.mshrMisses::processor.cores0.core.data        72242                       # number of SwapReq MSHR misses (Count)
board.cache_hierarchy.l1dcaches0.SwapReq.mshrMisses::total        72242                       # number of SwapReq MSHR misses (Count)
board.cache_hierarchy.l1dcaches0.SwapReq.mshrUncacheable::processor.cores0.core.data            1                       # number of SwapReq MSHR uncacheable (Count)
board.cache_hierarchy.l1dcaches0.SwapReq.mshrUncacheable::total            1                       # number of SwapReq MSHR uncacheable (Count)
board.cache_hierarchy.l1dcaches0.SwapReq.mshrMissLatency::processor.cores0.core.data   2383815000                       # number of SwapReq MSHR miss ticks (Tick)
[...]
board.processor.cores1.core.commitStats0.committedInstType::IntAlu    142315300     63.70%     64.30% # Class of committed instruction. (Count)
board.processor.cores1.core.commitStats0.committedInstType::IntMult        23333      0.01%     64.31% # Class of committed instruction. (Count)
board.processor.cores1.core.commitStats0.committedInstType::IntDiv          763      0.00%     64.31% # Class of committed instruction. (Count)
board.processor.cores1.core.commitStats0.committedInstType::FloatAdd            0      0.00%     64.31% # Class of committed instruction. (Count)
board.processor.cores1.core.commitStats0.committedInstType::FloatCmp            0      0.00%     64.31% # Class of committed instruction. (Count)
board.processor.cores1.core.commitStats0.committedInstType::FloatCvt            0      0.00%     64.31% # Class of committed instruction. (Count)
board.processor.cores1.core.commitStats0.committedInstType::FloatMult            0      0.00%     64.31% # Class of committed instruction. (Count)
board.processor.cores1.core.commitStats0.committedInstType::FloatMultAcc            0      0.00%     64.31% # Class of committed instruction. (Count)
board.processor.cores1.core.commitStats0.committedInstType::FloatDiv            0      0.00%     64.31% # Class of committed instruction. (Count)
board.processor.cores1.core.commitStats0.committedInstType::FloatMisc            0      0.00%     64.31% # Class of committed instruction. (Count)
board.processor.cores1.core.commitStats0.committedInstType::FloatSqrt            0      0.00%     64.31% # Class of committed instruction. (Count)
board.processor.cores1.core.commitStats0.committedInstType::SimdAdd            0      0.00%     64.31% # Class of committed instruction. (Count)
board.processor.cores1.core.commitStats0.committedInstType::SimdAddAcc            0      0.00%     64.31% # Class of committed instruction. (Count)
board.processor.cores1.core.commitStats0.committedInstType::SimdAlu            0      0.00%     64.31% # Class of committed instruction. (Count)
board.processor.cores1.core.commitStats0.committedInstType::SimdCmp            0      0.00%     64.31% # Class of committed instruction. (Count)
board.processor.cores1.core.commitStats0.committedInstType::SimdCvt            0      0.00%     64.31% # Class of committed instruction. (Count)
board.processor.cores1.core.commitStats0.committedInstType::SimdMisc            0      0.00%     64.31% # Class of committed instruction. (Count)
board.processor.cores1.core.commitStats0.committedInstType::SimdMult            0      0.00%     64.31% # Class of committed instruction. (Count)
board.processor.cores1.core.commitStats0.committedInstType::SimdMultAcc            0      0.00%     64.31% # Class of committed instruction. (Count)
board.processor.cores1.core.commitStats0.committedInstType::SimdMatMultAcc            0      0.00%     64.31% # Class of committed instruction. (Count)
board.processor.cores1.core.commitStats0.committedInstType::SimdShift            0      0.00%     64.31% # Class of committed instruction. (Count)
board.processor.cores1.core.commitStats0.committedInstType::SimdShiftAcc            0      0.00%     64.31% # Class of committed instruction. (Count)
board.processor.cores1.core.commitStats0.committedInstType::SimdDiv            0      0.00%     64.31% # Class of committed instruction. (Count)
board.processor.cores1.core.commitStats0.committedInstType::SimdSqrt            0      0.00%     64.31% # Class of committed instruction. (Count)
board.processor.cores1.core.commitStats0.committedInstType::SimdFloatAdd            0      0.00%     64.31% # Class of committed instruction. (Count)
board.processor.cores1.core.commitStats0.committedInstType::SimdFloatAlu            0      0.00%     64.31% # Class of committed instruction. (Count)
board.processor.cores1.core.commitStats0.committedInstType::SimdFloatCmp            0      0.00%     64.31% # Class of committed instruction. (Count)
board.processor.cores1.core.commitStats0.committedInstType::SimdFloatCvt            0      0.00%     64.31% # Class of committed instruction. (Count)
board.processor.cores1.core.commitStats0.committedInstType::SimdFloatDiv            0      0.00%     64.31% # Class of committed instruction. (Count)
board.processor.cores1.core.commitStats0.committedInstType::SimdFloatMisc            0      0.00%     64.31% # Class of committed instruction. (Count)
board.processor.cores1.core.commitStats0.committedInstType::SimdFloatMult            0      0.00%     64.31% # Class of committed instruction. (Count)
board.processor.cores1.core.commitStats0.committedInstType::SimdFloatMultAcc            0      0.00%     64.31% # Class of committed instruction. (Count)
board.processor.cores1.core.commitStats0.committedInstType::SimdFloatMatMultAcc            0      0.00%     64.31% # Class of committed instruction. (Count)
board.processor.cores1.core.commitStats0.committedInstType::SimdFloatSqrt            0      0.00%     64.31% # Class of committed instruction. (Count)
board.processor.cores1.core.commitStats0.committedInstType::SimdReduceAdd            0      0.00%     64.31% # Class of committed instruction. (Count)
board.processor.cores1.core.commitStats0.committedInstType::SimdReduceAlu            0      0.00%     64.31% # Class of committed instruction. (Count)
board.processor.cores1.core.commitStats0.committedInstType::SimdReduceCmp            0      0.00%     64.31% # Class of committed instruction. (Count)
board.processor.cores1.core.commitStats0.committedInstType::SimdFloatReduceAdd            0      0.00%     64.31% # Class of committed instruction. (Count)
board.processor.cores1.core.commitStats0.committedInstType::SimdFloatReduceCmp            0      0.00%     64.31% # Class of committed instruction. (Count)
board.processor.cores1.core.commitStats0.committedInstType::SimdAes            0      0.00%     64.31% # Class of committed instruction. (Count)
board.processor.cores1.core.commitStats0.committedInstType::SimdAesMix            0      0.00%     64.31% # Class of committed instruction. (Count)
board.processor.cores1.core.commitStats0.committedInstType::SimdSha1Hash            0      0.00%     64.31% # Class of committed instruction. (Count)
board.processor.cores1.core.commitStats0.committedInstType::SimdSha1Hash2            0      0.00%     64.31% # Class of committed instruction. (Count)
board.processor.cores1.core.commitStats0.committedInstType::SimdSha256Hash            0      0.00%     64.31% # Class of committed instruction. (Count)
board.processor.cores1.core.commitStats0.committedInstType::SimdSha256Hash2            0      0.00%     64.31% # Class of committed instruction. (Count)
board.processor.cores1.core.commitStats0.committedInstType::SimdShaSigma2            0      0.00%     64.31% # Class of committed instruction. (Count)
board.processor.cores1.core.commitStats0.committedInstType::SimdShaSigma3            0      0.00%     64.31% # Class of committed instruction. (Count)
board.processor.cores1.core.commitStats0.committedInstType::SimdPredAlu            0      0.00%     64.31% # Class of committed instruction. (Count)
board.processor.cores1.core.commitStats0.committedInstType::Matrix            0      0.00%     64.31% # Class of committed instruction. (Count)
board.processor.cores1.core.commitStats0.committedInstType::MatrixMov            0      0.00%     64.31% # Class of committed instruction. (Count)
board.processor.cores1.core.commitStats0.committedInstType::MatrixOP            0      0.00%     64.31% # Class of committed instruction. (Count)
board.processor.cores1.core.commitStats0.committedInstType::MemRead     46482271     20.81%     85.11% # Class of committed instruction. (Count)
board.processor.cores1.core.commitStats0.committedInstType::MemWrite     33255367     14.89%    100.00% # Class of committed instruction. (Count)
board.processor.cores1.core.commitStats0.committedInstType::FloatMemRead            0      0.00%    100.00% # Class of committed instruction. (Count)
board.processor.cores1.core.commitStats0.committedInstType::FloatMemWrite            0      0.00%    100.00% # Class of committed instruction. (Count)
board.processor.cores1.core.commitStats0.committedInstType::IprAccess            0      0.00%    100.00% # Class of committed instruction. (Count)
board.processor.cores1.core.commitStats0.committedInstType::InstPrefetch            0      0.00%    100.00% # Class of committed instruction. (Count)
board.processor.cores1.core.commitStats0.committedInstType::VectorUnitStrideLoad            0      0.00%    100.00% # Class of committed instruction. (Count)
board.processor.cores1.core.commitStats0.committedInstType::VectorUnitStrideStore            0      0.00%    100.00% # Class of committed instruction. (Count)
board.processor.cores1.core.commitStats0.committedInstType::VectorUnitStrideMaskLoad            0      0.00%    100.00% # Class of committed instruction. (Count)
board.processor.cores1.core.commitStats0.committedInstType::VectorUnitStrideMaskStore            0      0.00%    100.00% # Class of committed instruction. (Count)
board.processor.cores1.core.commitStats0.committedInstType::VectorStridedLoad            0      0.00%    100.00% # Class of committed instruction. (Count)
board.processor.cores1.core.commitStats0.committedInstType::VectorStridedStore            0      0.00%    100.00% # Class of committed instruction. (Count)
board.processor.cores1.core.commitStats0.committedInstType::VectorIndexedLoad            0      0.00%    100.00% # Class of committed instruction. (Count)
board.processor.cores1.core.commitStats0.committedInstType::VectorIndexedStore            0      0.00%    100.00% # Class of committed instruction. (Count)
board.processor.cores1.core.commitStats0.committedInstType::VectorUnitStrideFaultOnlyFirstLoad            0      0.00%    100.00% # Class of committed instruction. (Count)
board.processor.cores1.core.commitStats0.committedInstType::VectorWholeRegisterLoad            0      0.00%    100.00% # Class of committed instruction. (Count)
board.processor.cores1.core.commitStats0.committedInstType::VectorWholeRegisterStore            0      0.00%    100.00% # Class of committed instruction. (Count)
board.processor.cores1.core.commitStats0.committedInstType::VectorIntegerArith            0      0.00%    100.00% # Class of committed instruction. (Count)
board.processor.cores1.core.commitStats0.committedInstType::VectorFloatArith            0      0.00%    100.00% # Class of committed instruction. (Count)
board.processor.cores1.core.commitStats0.committedInstType::VectorFloatConvert            0      0.00%    100.00% # Class of committed instruction. (Count)
board.processor.cores1.core.commitStats0.committedInstType::VectorIntegerReduce            0      0.00%    100.00% # Class of committed instruction. (Count)
board.processor.cores1.core.commitStats0.committedInstType::VectorFloatReduce            0      0.00%    100.00% # Class of committed instruction. (Count)
board.processor.cores1.core.commitStats0.committedInstType::VectorMisc            0      0.00%    100.00% # Class of committed instruction. (Count)
board.processor.cores1.core.commitStats0.committedInstType::VectorIntegerExtension            0      0.00%    100.00% # Class of committed instruction. (Count)
board.processor.cores1.core.commitStats0.committedInstType::VectorConfig            0      0.00%    100.00% # Class of committed instruction. (Count)
board.processor.cores1.core.commitStats0.committedInstType::total    223398711                       # Class of committed instruction. (Count)
board.processor.cores1.core.commitStats0.committedControl::IsControl     54533704                       # Class of control type instructions committed (Count)
board.processor.cores1.core.commitStats0.committedControl::IsDirectControl     51441037                       # Class of control type instructions committed (Count)
board.processor.cores1.core.commitStats0.committedControl::IsIndirectControl      3092336                       # Class of control type instructions committed (Count)
board.processor.cores1.core.commitStats0.committedControl::IsCondControl     45918161                       # Class of control type instructions committed (Count)
board.processor.cores1.core.commitStats0.committedControl::IsUncondControl      8615212                       # Class of control type instructions committed (Count)
board.processor.cores1.core.commitStats0.committedControl::IsCall      2677862                       # Class of control type instructions committed (Count)
board.processor.cores1.core.commitStats0.committedControl::IsReturn      2678307                       # Class of control type instructions committed (Count)
board.processor.cores1.core.exec_context.thread_0.numMatAluAccesses            0                       # Number of matrix alu accesses (Count)
board.processor.cores1.core.exec_context.thread_0.numCallsReturns      5356169                       # Number of times a function call or return occured (Count)
board.processor.cores1.core.exec_context.thread_0.numMatInsts            0                       # Number of matrix instructions (Count)
board.processor.cores1.core.exec_context.thread_0.numIdleCycles            0                       # Number of idle cycles (Cycle)
board.processor.cores1.core.exec_context.thread_0.numBusyCycles    406161457                       # Number of busy cycles (Cycle)
board.processor.cores1.core.exec_context.thread_0.notIdleFraction            1                       # Percentage of non-idle cycles (Ratio)
board.processor.cores1.core.exec_context.thread_0.idleFraction            0                       # Percentage of idle cycles (Ratio)
board.processor.cores1.core.executeStats0.numInsts            0                       # Number of executed instructions (Count)
board.processor.cores1.core.executeStats0.numNop            0                       # Number of nop insts executed (Count)
board.processor.cores1.core.executeStats0.numBranches            0                       # Number of branches executed (Count)
board.processor.cores1.core.executeStats0.numLoadInsts            0                       # Number of load instructions executed (Count)
board.processor.cores1.core.executeStats0.numStoreInsts     79737638                       # Number of stores executed (Count)
board.processor.cores1.core.executeStats0.instRate            0                       # Inst execution rate ((Count/Cycle))
board.processor.cores1.core.executeStats0.numFpRegWrites            0                       # Number of times the floating registers were written (Count)
board.processor.cores1.core.executeStats0.numIntAluAccesses    219029484                       # Number of integer alu accesses (Count)
board.processor.cores1.core.executeStats0.numIntRegReads    279264643                       # Number of times the integer registers were read (Count)
board.processor.cores1.core.executeStats0.numIntRegWrites    137617898                       # Number of times the integer registers were written (Count)
board.processor.cores1.core.executeStats0.numMemRefs     79737638                       # Number of memory refs (Count)
board.processor.cores1.core.executeStats0.numMiscRegReads         9665                       # Number of times the Misc registers were read (Count)
board.processor.cores1.core.executeStats0.numMiscRegWrites         2946                       # Number of times the Misc registers were written (Count)
board.processor.cores1.core.executeStats0.numVecAluAccesses            0                       # Number of vector alu accesses (Count)
board.processor.cores1.core.executeStats0.numDiscardedOps            0                       # Number of ops (including micro ops) which were discarded before commit (Count)
board.processor.cores1.core.fetchStats0.numInsts    222749076                       # Number of instructions fetched (thread level) (Count)
board.processor.cores1.core.fetchStats0.numOps    223398711                       # Number of ops (including micro ops) fetched (thread level) (Count)
board.processor.cores1.core.fetchStats0.fetchRate     0.548425                       # Number of inst fetches per cycle ((Count/Cycle))
board.processor.cores1.core.fetchStats0.numBranches     54533704                       # Number of branches fetched (Count)
board.processor.cores1.core.fetchStats0.branchRate     0.134266                       # Number of branch fetches per cycle (Ratio)
board.processor.cores1.core.fetchStats0.numFetchSuspends            0                       # Number of times Execute suspended instruction fetching (Count)
board.processor.cores1.core.mmu.dtb.readHits     45833508                       # read hits (Count)
board.processor.cores1.core.mmu.dtb.readMisses            1                       # read misses (Count)
board.processor.cores1.core.mmu.dtb.readAccesses     45833509                       # read accesses (Count)
board.processor.cores1.core.mmu.dtb.writeHits     33895930                       # write hits (Count)
board.processor.cores1.core.mmu.dtb.writeMisses           18                       # write misses (Count)
board.processor.cores1.core.mmu.dtb.writeAccesses     33895948                       # write accesses (Count)
board.processor.cores1.core.mmu.dtb.hits     79729438                       # Total TLB (read and write) hits (Count)
board.processor.cores1.core.mmu.dtb.misses           19                       # Total TLB (read and write) misses (Count)
board.processor.cores1.core.mmu.dtb.accesses     79729457                       # Total TLB (read and write) accesses (Count)
board.processor.cores1.core.mmu.dtb.walker.power_state.pwrStateResidencyTicks::UNDEFINED 100835718412000                       # Cumulative time (in ticks) in various power states (Tick)
board.processor.cores1.core.mmu.itb.readHits    277348422                       # read hits (Count)
board.processor.cores1.core.mmu.itb.readMisses           10                       # read misses (Count)
board.processor.cores1.core.mmu.itb.readAccesses    277348432                       # read accesses (Count)
board.processor.cores1.core.mmu.itb.writeHits            0                       # write hits (Count)
board.processor.cores1.core.mmu.itb.writeMisses            0                       # write misses (Count)
board.processor.cores1.core.mmu.itb.writeAccesses            0                       # write accesses (Count)
board.processor.cores1.core.mmu.itb.hits    277348422                       # Total TLB (read and write) hits (Count)
board.processor.cores1.core.mmu.itb.misses           10                       # Total TLB (read and write) misses (Count)
board.processor.cores1.core.mmu.itb.accesses    277348432                       # Total TLB (read and write) accesses (Count)
board.processor.cores1.core.mmu.itb.walker.power_state.pwrStateResidencyTicks::UNDEFINED 100835718412000                       # Cumulative time (in ticks) in various power states (Tick)
board.processor.cores1.core.power_state.pwrStateResidencyTicks::ON 409127482000                       # Cumulative time (in ticks) in various power states (Tick)
board.processor.cores1.core.thread_0.numInsts            0                       # Number of Instructions committed (Count)
board.processor.cores1.core.thread_0.numOps            0                       # Number of Ops committed (Count)
board.processor.cores1.core.thread_0.numMemRefs            0                       # Number of Memory References (Count)
board.rng.power_state.pwrStateResidencyTicks::UNDEFINED 100835718412000                       # Cumulative time (in ticks) in various power states (Tick)
board.workload.inst.arm                             0                       # number of arm instructions executed (Count)
board.workload.inst.quiesce                         0                       # number of quiesce instructions executed (Count)

---------- End Simulation Statistics   ----------
