
---------- Begin Simulation Statistics ----------
simSeconds                                   6.872400                       # Number of seconds simulated (Second)
simTicks                                 6872400357000                       # Number of ticks simulated (Tick)
finalTick                                115934011540000                       # Number of ticks from beginning of simulation (restored from checkpoints and never reset) (Tick)
simFreq                                  1000000000000                       # The number of ticks per simulated second ((Tick/Second))
hostSeconds                                   8255.67                       # Real time elapsed on the host (Second)
hostTickRate                                832446455                       # The number of ticks simulated per host second (ticks/s) ((Tick/Second))
hostMemory                                    8551952                       # Number of bytes of host memory used (Byte)
simInsts                                   8455411540                       # Number of instructions simulated (Count)
simOps                                     8455469218                       # Number of ops (including micro ops) simulated (Count)
hostInstRate                                  1024195                       # Simulator instruction rate (inst/s) ((Count/Second))
hostOpRate                                    1024202                       # Simulator op (including micro ops) rate (op/s) ((Count/Second))
board.bridge.power_state.pwrStateResidencyTicks::UNDEFINED 115934011540000                       # Cumulative time (in ticks) in various power states (Tick)
board.cache_hierarchy.dptw_caches0.demandHits::processor.cores0.core.mmu.dtb.walker        49297                       # number of demand (read+write) hits (Count)
board.cache_hierarchy.dptw_caches0.demandHits::total        49297                       # number of demand (read+write) hits (Count)
board.cache_hierarchy.dptw_caches0.overallHits::processor.cores0.core.mmu.dtb.walker        49297                       # number of overall hits (Count)
board.cache_hierarchy.dptw_caches0.overallHits::total        49297                       # number of overall hits (Count)
board.cache_hierarchy.dptw_caches0.demandMisses::processor.cores0.core.mmu.dtb.walker          321                       # number of demand (read+write) misses (Count)
board.cache_hierarchy.dptw_caches0.demandMisses::total          321                       # number of demand (read+write) misses (Count)
board.cache_hierarchy.dptw_caches0.overallMisses::processor.cores0.core.mmu.dtb.walker          321                       # number of overall misses (Count)
board.cache_hierarchy.dptw_caches0.overallMisses::total          321                       # number of overall misses (Count)
board.cache_hierarchy.dptw_caches0.demandMissLatency::processor.cores0.core.mmu.dtb.walker     16732000                       # number of demand (read+write) miss ticks (Tick)
board.cache_hierarchy.dptw_caches0.demandMissLatency::total     16732000                       # number of demand (read+write) miss ticks (Tick)
board.cache_hierarchy.dptw_caches0.overallMissLatency::processor.cores0.core.mmu.dtb.walker     16732000                       # number of overall miss ticks (Tick)
board.cache_hierarchy.dptw_caches0.overallMissLatency::total     16732000                       # number of overall miss ticks (Tick)
board.cache_hierarchy.dptw_caches0.demandAccesses::processor.cores0.core.mmu.dtb.walker        49618                       # number of demand (read+write) accesses (Count)
board.cache_hierarchy.dptw_caches0.demandAccesses::total        49618                       # number of demand (read+write) accesses (Count)
board.cache_hierarchy.dptw_caches0.overallAccesses::processor.cores0.core.mmu.dtb.walker        49618                       # number of overall (read+write) accesses (Count)
board.cache_hierarchy.dptw_caches0.overallAccesses::total        49618                       # number of overall (read+write) accesses (Count)
board.cache_hierarchy.dptw_caches0.demandMissRate::processor.cores0.core.mmu.dtb.walker     0.006469                       # miss rate for demand accesses (Ratio)
board.cache_hierarchy.dptw_caches0.demandMissRate::total     0.006469                       # miss rate for demand accesses (Ratio)
board.cache_hierarchy.dptw_caches0.overallMissRate::processor.cores0.core.mmu.dtb.walker     0.006469                       # miss rate for overall accesses (Ratio)
board.cache_hierarchy.dptw_caches0.overallMissRate::total     0.006469                       # miss rate for overall accesses (Ratio)
board.cache_hierarchy.dptw_caches0.demandAvgMissLatency::processor.cores0.core.mmu.dtb.walker 52124.610592                       # average overall miss latency in ticks ((Tick/Count))
board.cache_hierarchy.dptw_caches0.demandAvgMissLatency::total 52124.610592                       # average overall miss latency in ticks ((Tick/Count))
board.cache_hierarchy.dptw_caches0.overallAvgMissLatency::processor.cores0.core.mmu.dtb.walker 52124.610592                       # average overall miss latency ((Tick/Count))
board.cache_hierarchy.dptw_caches0.overallAvgMissLatency::total 52124.610592                       # average overall miss latency ((Tick/Count))
board.cache_hierarchy.dptw_caches0.blockedCycles::no_mshrs            0                       # number of cycles access was blocked (Cycle)
board.cache_hierarchy.dptw_caches0.blockedCycles::no_targets            0                       # number of cycles access was blocked (Cycle)
board.cache_hierarchy.dptw_caches0.blockedCauses::no_mshrs            0                       # number of times access was blocked (Count)
board.cache_hierarchy.dptw_caches0.blockedCauses::no_targets            0                       # number of times access was blocked (Count)
board.cache_hierarchy.dptw_caches0.avgBlocked::no_mshrs          nan                       # average number of cycles each access was blocked ((Cycle/Count))
board.cache_hierarchy.dptw_caches0.avgBlocked::no_targets          nan                       # average number of cycles each access was blocked ((Cycle/Count))
board.cache_hierarchy.dptw_caches0.writebacks::writebacks          248                       # number of writebacks (Count)
board.cache_hierarchy.dptw_caches0.writebacks::total          248                       # number of writebacks (Count)
board.cache_hierarchy.dptw_caches0.demandMshrMisses::processor.cores0.core.mmu.dtb.walker          321                       # number of demand (read+write) MSHR misses (Count)
board.cache_hierarchy.dptw_caches0.demandMshrMisses::total          321                       # number of demand (read+write) MSHR misses (Count)
board.cache_hierarchy.dptw_caches0.overallMshrMisses::processor.cores0.core.mmu.dtb.walker          321                       # number of overall MSHR misses (Count)
board.cache_hierarchy.dptw_caches0.overallMshrMisses::total          321                       # number of overall MSHR misses (Count)
board.cache_hierarchy.dptw_caches0.demandMshrMissLatency::processor.cores0.core.mmu.dtb.walker     16411000                       # number of demand (read+write) MSHR miss ticks (Tick)
board.cache_hierarchy.dptw_caches0.demandMshrMissLatency::total     16411000                       # number of demand (read+write) MSHR miss ticks (Tick)
board.cache_hierarchy.dptw_caches0.overallMshrMissLatency::processor.cores0.core.mmu.dtb.walker     16411000                       # number of overall MSHR miss ticks (Tick)
board.cache_hierarchy.dptw_caches0.overallMshrMissLatency::total     16411000                       # number of overall MSHR miss ticks (Tick)
board.cache_hierarchy.dptw_caches0.demandMshrMissRate::processor.cores0.core.mmu.dtb.walker     0.006469                       # mshr miss ratio for demand accesses (Ratio)
board.cache_hierarchy.dptw_caches0.demandMshrMissRate::total     0.006469                       # mshr miss ratio for demand accesses (Ratio)
board.cache_hierarchy.dptw_caches0.overallMshrMissRate::processor.cores0.core.mmu.dtb.walker     0.006469                       # mshr miss ratio for overall accesses (Ratio)
board.cache_hierarchy.dptw_caches0.overallMshrMissRate::total     0.006469                       # mshr miss ratio for overall accesses (Ratio)
board.cache_hierarchy.dptw_caches0.demandAvgMshrMissLatency::processor.cores0.core.mmu.dtb.walker 51124.610592                       # average overall mshr miss latency ((Tick/Count))
board.cache_hierarchy.dptw_caches0.demandAvgMshrMissLatency::total 51124.610592                       # average overall mshr miss latency ((Tick/Count))
board.cache_hierarchy.dptw_caches0.overallAvgMshrMissLatency::processor.cores0.core.mmu.dtb.walker 51124.610592                       # average overall mshr miss latency ((Tick/Count))
board.cache_hierarchy.dptw_caches0.overallAvgMshrMissLatency::total 51124.610592                       # average overall mshr miss latency ((Tick/Count))
board.cache_hierarchy.dptw_caches0.replacements          248                       # number of replacements (Count)
board.cache_hierarchy.dptw_caches0.ReadReq.hits::processor.cores0.core.mmu.dtb.walker        49297                       # number of ReadReq hits (Count)
board.cache_hierarchy.dptw_caches0.ReadReq.hits::total        49297                       # number of ReadReq hits (Count)
board.cache_hierarchy.dptw_caches0.ReadReq.misses::processor.cores0.core.mmu.dtb.walker          321                       # number of ReadReq misses (Count)
board.cache_hierarchy.dptw_caches0.ReadReq.misses::total          321                       # number of ReadReq misses (Count)
board.cache_hierarchy.dptw_caches0.ReadReq.missLatency::processor.cores0.core.mmu.dtb.walker     16732000                       # number of ReadReq miss ticks (Tick)
board.cache_hierarchy.dptw_caches0.ReadReq.missLatency::total     16732000                       # number of ReadReq miss ticks (Tick)
board.cache_hierarchy.dptw_caches0.ReadReq.accesses::processor.cores0.core.mmu.dtb.walker        49618                       # number of ReadReq accesses(hits+misses) (Count)
board.cache_hierarchy.dptw_caches0.ReadReq.accesses::total        49618                       # number of ReadReq accesses(hits+misses) (Count)
board.cache_hierarchy.dptw_caches0.ReadReq.missRate::processor.cores0.core.mmu.dtb.walker     0.006469                       # miss rate for ReadReq accesses (Ratio)
board.cache_hierarchy.dptw_caches0.ReadReq.missRate::total     0.006469                       # miss rate for ReadReq accesses (Ratio)
board.cache_hierarchy.dptw_caches0.ReadReq.avgMissLatency::processor.cores0.core.mmu.dtb.walker 52124.610592                       # average ReadReq miss latency ((Tick/Count))
board.cache_hierarchy.dptw_caches0.ReadReq.avgMissLatency::total 52124.610592                       # average ReadReq miss latency ((Tick/Count))
board.cache_hierarchy.dptw_caches0.ReadReq.mshrMisses::processor.cores0.core.mmu.dtb.walker          321                       # number of ReadReq MSHR misses (Count)
board.cache_hierarchy.dptw_caches0.ReadReq.mshrMisses::total          321                       # number of ReadReq MSHR misses (Count)
board.cache_hierarchy.dptw_caches0.ReadReq.mshrMissLatency::processor.cores0.core.mmu.dtb.walker     16411000                       # number of ReadReq MSHR miss ticks (Tick)
board.cache_hierarchy.dptw_caches0.ReadReq.mshrMissLatency::total     16411000                       # number of ReadReq MSHR miss ticks (Tick)
board.cache_hierarchy.dptw_caches0.ReadReq.mshrMissRate::processor.cores0.core.mmu.dtb.walker     0.006469                       # mshr miss rate for ReadReq accesses (Ratio)
board.cache_hierarchy.dptw_caches0.ReadReq.mshrMissRate::total     0.006469                       # mshr miss rate for ReadReq accesses (Ratio)
board.cache_hierarchy.dptw_caches0.ReadReq.avgMshrMissLatency::processor.cores0.core.mmu.dtb.walker 51124.610592                       # average ReadReq mshr miss latency ((Tick/Count))
board.cache_hierarchy.dptw_caches0.ReadReq.avgMshrMissLatency::total 51124.610592                       # average ReadReq mshr miss latency ((Tick/Count))
board.cache_hierarchy.dptw_caches0.power_state.pwrStateResidencyTicks::UNDEFINED 115934011540000                       # Cumulative time (in ticks) in various power states (Tick)
board.cache_hierarchy.dptw_caches0.tags.tagsInUse    92.441928                       # Average ticks per tags in use ((Tick/Count))
board.cache_hierarchy.dptw_caches0.tags.totalRefs         1784                       # Total number of references to valid blocks. (Count)
board.cache_hierarchy.dptw_caches0.tags.sampledRefs          248                       # Sample count of references to valid blocks. (Count)
board.cache_hierarchy.dptw_caches0.tags.avgRefs     7.193548                       # Average number of references to valid blocks. ((Count/Count))
board.cache_hierarchy.dptw_caches0.tags.warmupTick            0                       # The tick when the warmup percentage was hit. (Tick)
board.cache_hierarchy.dptw_caches0.tags.occupancies::processor.cores0.core.mmu.dtb.walker    92.441928                       # Average occupied blocks per tick, per requestor ((Count/Tick))
board.cache_hierarchy.dptw_caches0.tags.avgOccs::processor.cores0.core.mmu.dtb.walker     0.722203                       # Average percentage of cache occupancy ((Ratio/Tick))
board.cache_hierarchy.dptw_caches0.tags.avgOccs::total     0.722203                       # Average percentage of cache occupancy ((Ratio/Tick))
board.cache_hierarchy.dptw_caches0.tags.occupanciesTaskId::1024          106                       # Occupied blocks per task id (Count)
board.cache_hierarchy.dptw_caches0.tags.ageTaskId_1024::4          106                       # Occupied blocks per task id, per block age (Count)
board.cache_hierarchy.dptw_caches0.tags.ratioOccsTaskId::1024     0.828125                       # Ratio of occupied blocks and all blocks, per task id (Ratio)
board.cache_hierarchy.dptw_caches0.tags.tagAccesses       198793                       # Number of tag accesses (Count)
board.cache_hierarchy.dptw_caches0.tags.dataAccesses       198793                       # Number of data accesses (Count)
board.cache_hierarchy.dptw_caches0.tags.power_state.pwrStateResidencyTicks::UNDEFINED 115934011540000                       # Cumulative time (in ticks) in various power states (Tick)
board.cache_hierarchy.dptw_caches1.demandHits::processor.cores1.core.mmu.dtb.walker        50122                       # number of demand (read+write) hits (Count)
board.cache_hierarchy.dptw_caches1.demandHits::total        50122                       # number of demand (read+write) hits (Count)
board.cache_hierarchy.dptw_caches1.overallHits::processor.cores1.core.mmu.dtb.walker        50122                       # number of overall hits (Count)
board.cache_hierarchy.dptw_caches1.overallHits::total        50122                       # number of overall hits (Count)
board.cache_hierarchy.dptw_caches1.demandMisses::processor.cores1.core.mmu.dtb.walker          183                       # number of demand (read+write) misses (Count)
board.cache_hierarchy.dptw_caches1.demandMisses::total          183                       # number of demand (read+write) misses (Count)
board.cache_hierarchy.dptw_caches1.overallMisses::processor.cores1.core.mmu.dtb.walker          183                       # number of overall misses (Count)
board.cache_hierarchy.dptw_caches1.overallMisses::total          183                       # number of overall misses (Count)
board.cache_hierarchy.dptw_caches1.demandMissLatency::processor.cores1.core.mmu.dtb.walker      9584000                       # number of demand (read+write) miss ticks (Tick)
board.cache_hierarchy.dptw_caches1.demandMissLatency::total      9584000                       # number of demand (read+write) miss ticks (Tick)
board.cache_hierarchy.dptw_caches1.overallMissLatency::processor.cores1.core.mmu.dtb.walker      9584000                       # number of overall miss ticks (Tick)
board.cache_hierarchy.dptw_caches1.overallMissLatency::total      9584000                       # number of overall miss ticks (Tick)
board.cache_hierarchy.dptw_caches1.demandAccesses::processor.cores1.core.mmu.dtb.walker        50305                       # number of demand (read+write) accesses (Count)
board.cache_hierarchy.dptw_caches1.demandAccesses::total        50305                       # number of demand (read+write) accesses (Count)
board.cache_hierarchy.dptw_caches1.overallAccesses::processor.cores1.core.mmu.dtb.walker        50305                       # number of overall (read+write) accesses (Count)
board.cache_hierarchy.dptw_caches1.overallAccesses::total        50305                       # number of overall (read+write) accesses (Count)
board.cache_hierarchy.dptw_caches1.demandMissRate::processor.cores1.core.mmu.dtb.walker     0.003638                       # miss rate for demand accesses (Ratio)
board.cache_hierarchy.dptw_caches1.demandMissRate::total     0.003638                       # miss rate for demand accesses (Ratio)
board.cache_hierarchy.dptw_caches1.overallMissRate::processor.cores1.core.mmu.dtb.walker     0.003638                       # miss rate for overall accesses (Ratio)
board.cache_hierarchy.dptw_caches1.overallMissRate::total     0.003638                       # miss rate for overall accesses (Ratio)
board.cache_hierarchy.dptw_caches1.demandAvgMissLatency::processor.cores1.core.mmu.dtb.walker 52371.584699                       # average overall miss latency in ticks ((Tick/Count))
board.cache_hierarchy.dptw_caches1.demandAvgMissLatency::total 52371.584699                       # average overall miss latency in ticks ((Tick/Count))
board.cache_hierarchy.dptw_caches1.overallAvgMissLatency::processor.cores1.core.mmu.dtb.walker 52371.584699                       # average overall miss latency ((Tick/Count))
board.cache_hierarchy.dptw_caches1.overallAvgMissLatency::total 52371.584699                       # average overall miss latency ((Tick/Count))
board.cache_hierarchy.dptw_caches1.blockedCycles::no_mshrs            0                       # number of cycles access was blocked (Cycle)
board.cache_hierarchy.dptw_caches1.blockedCycles::no_targets            0                       # number of cycles access was blocked (Cycle)
board.cache_hierarchy.dptw_caches1.blockedCauses::no_mshrs            0                       # number of times access was blocked (Count)
board.cache_hierarchy.dptw_caches1.blockedCauses::no_targets            0                       # number of times access was blocked (Count)
board.cache_hierarchy.dptw_caches1.avgBlocked::no_mshrs          nan                       # average number of cycles each access was blocked ((Cycle/Count))
board.cache_hierarchy.dptw_caches1.avgBlocked::no_targets          nan                       # average number of cycles each access was blocked ((Cycle/Count))
board.cache_hierarchy.dptw_caches1.writebacks::writebacks          180                       # number of writebacks (Count)
board.cache_hierarchy.dptw_caches1.writebacks::total          180                       # number of writebacks (Count)
board.cache_hierarchy.dptw_caches1.demandMshrMisses::processor.cores1.core.mmu.dtb.walker          183                       # number of demand (read+write) MSHR misses (Count)
board.cache_hierarchy.dptw_caches1.demandMshrMisses::total          183                       # number of demand (read+write) MSHR misses (Count)
board.cache_hierarchy.dptw_caches1.overallMshrMisses::processor.cores1.core.mmu.dtb.walker          183                       # number of overall MSHR misses (Count)
board.cache_hierarchy.dptw_caches1.overallMshrMisses::total          183                       # number of overall MSHR misses (Count)
board.cache_hierarchy.dptw_caches1.demandMshrMissLatency::processor.cores1.core.mmu.dtb.walker      9401000                       # number of demand (read+write) MSHR miss ticks (Tick)
board.cache_hierarchy.dptw_caches1.demandMshrMissLatency::total      9401000                       # number of demand (read+write) MSHR miss ticks (Tick)
board.cache_hierarchy.dptw_caches1.overallMshrMissLatency::processor.cores1.core.mmu.dtb.walker      9401000                       # number of overall MSHR miss ticks (Tick)
board.cache_hierarchy.dptw_caches1.overallMshrMissLatency::total      9401000                       # number of overall MSHR miss ticks (Tick)
board.cache_hierarchy.dptw_caches1.demandMshrMissRate::processor.cores1.core.mmu.dtb.walker     0.003638                       # mshr miss ratio for demand accesses (Ratio)
board.cache_hierarchy.dptw_caches1.demandMshrMissRate::total     0.003638                       # mshr miss ratio for demand accesses (Ratio)
board.cache_hierarchy.dptw_caches1.overallMshrMissRate::processor.cores1.core.mmu.dtb.walker     0.003638                       # mshr miss ratio for overall accesses (Ratio)
board.cache_hierarchy.dptw_caches1.overallMshrMissRate::total     0.003638                       # mshr miss ratio for overall accesses (Ratio)
board.cache_hierarchy.dptw_caches1.demandAvgMshrMissLatency::processor.cores1.core.mmu.dtb.walker 51371.584699                       # average overall mshr miss latency ((Tick/Count))
board.cache_hierarchy.dptw_caches1.demandAvgMshrMissLatency::total 51371.584699                       # average overall mshr miss latency ((Tick/Count))
board.cache_hierarchy.dptw_caches1.overallAvgMshrMissLatency::processor.cores1.core.mmu.dtb.walker 51371.584699                       # average overall mshr miss latency ((Tick/Count))
board.cache_hierarchy.dptw_caches1.overallAvgMshrMissLatency::total 51371.584699                       # average overall mshr miss latency ((Tick/Count))
board.cache_hierarchy.dptw_caches1.replacements          180                       # number of replacements (Count)
board.cache_hierarchy.dptw_caches1.ReadReq.hits::processor.cores1.core.mmu.dtb.walker        50122                       # number of ReadReq hits (Count)
board.cache_hierarchy.dptw_caches1.ReadReq.hits::total        50122                       # number of ReadReq hits (Count)
board.cache_hierarchy.dptw_caches1.ReadReq.misses::processor.cores1.core.mmu.dtb.walker          183                       # number of ReadReq misses (Count)
board.cache_hierarchy.dptw_caches1.ReadReq.misses::total          183                       # number of ReadReq misses (Count)
board.cache_hierarchy.dptw_caches1.ReadReq.missLatency::processor.cores1.core.mmu.dtb.walker      9584000                       # number of ReadReq miss ticks (Tick)
board.cache_hierarchy.dptw_caches1.ReadReq.missLatency::total      9584000                       # number of ReadReq miss ticks (Tick)
board.cache_hierarchy.dptw_caches1.ReadReq.accesses::processor.cores1.core.mmu.dtb.walker        50305                       # number of ReadReq accesses(hits+misses) (Count)
board.cache_hierarchy.dptw_caches1.ReadReq.accesses::total        50305                       # number of ReadReq accesses(hits+misses) (Count)
board.cache_hierarchy.dptw_caches1.ReadReq.missRate::processor.cores1.core.mmu.dtb.walker     0.003638                       # miss rate for ReadReq accesses (Ratio)
board.cache_hierarchy.dptw_caches1.ReadReq.missRate::total     0.003638                       # miss rate for ReadReq accesses (Ratio)
board.cache_hierarchy.dptw_caches1.ReadReq.avgMissLatency::processor.cores1.core.mmu.dtb.walker 52371.584699                       # average ReadReq miss latency ((Tick/Count))
board.cache_hierarchy.dptw_caches1.ReadReq.avgMissLatency::total 52371.584699                       # average ReadReq miss latency ((Tick/Count))
board.cache_hierarchy.dptw_caches1.ReadReq.mshrMisses::processor.cores1.core.mmu.dtb.walker          183                       # number of ReadReq MSHR misses (Count)
board.cache_hierarchy.dptw_caches1.ReadReq.mshrMisses::total          183                       # number of ReadReq MSHR misses (Count)
board.cache_hierarchy.dptw_caches1.ReadReq.mshrMissLatency::processor.cores1.core.mmu.dtb.walker      9401000                       # number of ReadReq MSHR miss ticks (Tick)
board.cache_hierarchy.dptw_caches1.ReadReq.mshrMissLatency::total      9401000                       # number of ReadReq MSHR miss ticks (Tick)
board.cache_hierarchy.dptw_caches1.ReadReq.mshrMissRate::processor.cores1.core.mmu.dtb.walker     0.003638                       # mshr miss rate for ReadReq accesses (Ratio)
board.cache_hierarchy.dptw_caches1.ReadReq.mshrMissRate::total     0.003638                       # mshr miss rate for ReadReq accesses (Ratio)
board.cache_hierarchy.dptw_caches1.ReadReq.avgMshrMissLatency::processor.cores1.core.mmu.dtb.walker 51371.584699                       # average ReadReq mshr miss latency ((Tick/Count))
board.cache_hierarchy.dptw_caches1.ReadReq.avgMshrMissLatency::total 51371.584699                       # average ReadReq mshr miss latency ((Tick/Count))
board.cache_hierarchy.dptw_caches1.power_state.pwrStateResidencyTicks::UNDEFINED 115934011540000                       # Cumulative time (in ticks) in various power states (Tick)
board.cache_hierarchy.dptw_caches1.tags.tagsInUse   101.000000                       # Average ticks per tags in use ((Tick/Count))
board.cache_hierarchy.dptw_caches1.tags.totalRefs         1935                       # Total number of references to valid blocks. (Count)
board.cache_hierarchy.dptw_caches1.tags.sampledRefs          183                       # Sample count of references to valid blocks. (Count)
board.cache_hierarchy.dptw_caches1.tags.avgRefs    10.573770                       # Average number of references to valid blocks. ((Count/Count))
board.cache_hierarchy.dptw_caches1.tags.warmupTick            0                       # The tick when the warmup percentage was hit. (Tick)
board.cache_hierarchy.dptw_caches1.tags.occupancies::processor.cores1.core.mmu.dtb.walker   101.000000                       # Average occupied blocks per tick, per requestor ((Count/Tick))
board.cache_hierarchy.dptw_caches1.tags.avgOccs::processor.cores1.core.mmu.dtb.walker     0.789062                       # Average percentage of cache occupancy ((Ratio/Tick))
board.cache_hierarchy.dptw_caches1.tags.avgOccs::total     0.789062                       # Average percentage of cache occupancy ((Ratio/Tick))
board.cache_hierarchy.dptw_caches1.tags.occupanciesTaskId::1024          101                       # Occupied blocks per task id (Count)
board.cache_hierarchy.dptw_caches1.tags.ageTaskId_1024::4          101                       # Occupied blocks per task id, per block age (Count)
board.cache_hierarchy.dptw_caches1.tags.ratioOccsTaskId::1024     0.789062                       # Ratio of occupied blocks and all blocks, per task id (Ratio)
board.cache_hierarchy.dptw_caches1.tags.tagAccesses       201403                       # Number of tag accesses (Count)
board.cache_hierarchy.dptw_caches1.tags.dataAccesses       201403                       # Number of data accesses (Count)
board.cache_hierarchy.dptw_caches1.tags.power_state.pwrStateResidencyTicks::UNDEFINED 115934011540000                       # Cumulative time (in ticks) in various power states (Tick)
board.cache_hierarchy.iocache.blockedCycles::no_mshrs            0                       # number of cycles access was blocked (Cycle)
board.cache_hierarchy.iocache.blockedCycles::no_targets            0                       # number of cycles access was blocked (Cycle)
board.cache_hierarchy.iocache.blockedCauses::no_mshrs            0                       # number of times access was blocked (Count)
board.cache_hierarchy.iocache.blockedCauses::no_targets            0                       # number of times access was blocked (Count)
board.cache_hierarchy.iocache.avgBlocked::no_mshrs          nan                       # average number of cycles each access was blocked ((Cycle/Count))
board.cache_hierarchy.iocache.avgBlocked::no_targets          nan                       # average number of cycles each access was blocked ((Cycle/Count))
board.cache_hierarchy.iocache.replacements            0                       # number of replacements (Count)
board.cache_hierarchy.iocache.power_state.pwrStateResidencyTicks::UNDEFINED 115934011540000                       # Cumulative time (in ticks) in various power states (Tick)
board.cache_hierarchy.iocache.tags.tagsInUse            0                       # Average ticks per tags in use ((Tick/Count))
board.cache_hierarchy.iocache.tags.totalRefs            0                       # Total number of references to valid blocks. (Count)
board.cache_hierarchy.iocache.tags.sampledRefs            0                       # Sample count of references to valid blocks. (Count)
board.cache_hierarchy.iocache.tags.avgRefs          nan                       # Average number of references to valid blocks. ((Count/Count))
board.cache_hierarchy.iocache.tags.warmupTick            0                       # The tick when the warmup percentage was hit. (Tick)
board.cache_hierarchy.iocache.tags.tagAccesses            0                       # Number of tag accesses (Count)
board.cache_hierarchy.iocache.tags.dataAccesses            0                       # Number of data accesses (Count)
board.cache_hierarchy.iocache.tags.power_state.pwrStateResidencyTicks::UNDEFINED 115934011540000                       # Cumulative time (in ticks) in various power states (Tick)
board.cache_hierarchy.iptw_caches0.demandHits::processor.cores0.core.mmu.itb.walker           30                       # number of demand (read+write) hits (Count)
board.cache_hierarchy.iptw_caches0.demandHits::total           30                       # number of demand (read+write) hits (Count)
board.cache_hierarchy.iptw_caches0.overallHits::processor.cores0.core.mmu.itb.walker           30                       # number of overall hits (Count)
board.cache_hierarchy.iptw_caches0.overallHits::total           30                       # number of overall hits (Count)
board.cache_hierarchy.iptw_caches0.demandMisses::processor.cores0.core.mmu.itb.walker            9                       # number of demand (read+write) misses (Count)
board.cache_hierarchy.iptw_caches0.demandMisses::total            9                       # number of demand (read+write) misses (Count)
board.cache_hierarchy.iptw_caches0.overallMisses::processor.cores0.core.mmu.itb.walker            9                       # number of overall misses (Count)
board.cache_hierarchy.iptw_caches0.overallMisses::total            9                       # number of overall misses (Count)
board.cache_hierarchy.iptw_caches0.demandMissLatency::processor.cores0.core.mmu.itb.walker       741000                       # number of demand (read+write) miss ticks (Tick)
board.cache_hierarchy.iptw_caches0.demandMissLatency::total       741000                       # number of demand (read+write) miss ticks (Tick)
board.cache_hierarchy.iptw_caches0.overallMissLatency::processor.cores0.core.mmu.itb.walker       741000                       # number of overall miss ticks (Tick)
board.cache_hierarchy.iptw_caches0.overallMissLatency::total       741000                       # number of overall miss ticks (Tick)
board.cache_hierarchy.iptw_caches0.demandAccesses::processor.cores0.core.mmu.itb.walker           39                       # number of demand (read+write) accesses (Count)
board.cache_hierarchy.iptw_caches0.demandAccesses::total           39                       # number of demand (read+write) accesses (Count)
board.cache_hierarchy.iptw_caches0.overallAccesses::processor.cores0.core.mmu.itb.walker           39                       # number of overall (read+write) accesses (Count)
board.cache_hierarchy.iptw_caches0.overallAccesses::total           39                       # number of overall (read+write) accesses (Count)
board.cache_hierarchy.iptw_caches0.demandMissRate::processor.cores0.core.mmu.itb.walker     0.230769                       # miss rate for demand accesses (Ratio)
board.cache_hierarchy.iptw_caches0.demandMissRate::total     0.230769                       # miss rate for demand accesses (Ratio)
board.cache_hierarchy.iptw_caches0.overallMissRate::processor.cores0.core.mmu.itb.walker     0.230769                       # miss rate for overall accesses (Ratio)
board.cache_hierarchy.iptw_caches0.overallMissRate::total     0.230769                       # miss rate for overall accesses (Ratio)
board.cache_hierarchy.iptw_caches0.demandAvgMissLatency::processor.cores0.core.mmu.itb.walker 82333.333333                       # average overall miss latency in ticks ((Tick/Count))
board.cache_hierarchy.iptw_caches0.demandAvgMissLatency::total 82333.333333                       # average overall miss latency in ticks ((Tick/Count))
board.cache_hierarchy.iptw_caches0.overallAvgMissLatency::processor.cores0.core.mmu.itb.walker 82333.333333                       # average overall miss latency ((Tick/Count))
board.cache_hierarchy.iptw_caches0.overallAvgMissLatency::total 82333.333333                       # average overall miss latency ((Tick/Count))
board.cache_hierarchy.iptw_caches0.blockedCycles::no_mshrs            0                       # number of cycles access was blocked (Cycle)
board.cache_hierarchy.iptw_caches0.blockedCycles::no_targets            0                       # number of cycles access was blocked (Cycle)
board.cache_hierarchy.iptw_caches0.blockedCauses::no_mshrs            0                       # number of times access was blocked (Count)
board.cache_hierarchy.iptw_caches0.blockedCauses::no_targets            0                       # number of times access was blocked (Count)
board.cache_hierarchy.iptw_caches0.avgBlocked::no_mshrs          nan                       # average number of cycles each access was blocked ((Cycle/Count))
board.cache_hierarchy.iptw_caches0.avgBlocked::no_targets          nan                       # average number of cycles each access was blocked ((Cycle/Count))
board.cache_hierarchy.iptw_caches0.writebacks::writebacks            1                       # number of writebacks (Count)
board.cache_hierarchy.iptw_caches0.writebacks::total            1                       # number of writebacks (Count)
board.cache_hierarchy.iptw_caches0.demandMshrMisses::processor.cores0.core.mmu.itb.walker            9                       # number of demand (read+write) MSHR misses (Count)
board.cache_hierarchy.iptw_caches0.demandMshrMisses::total            9                       # number of demand (read+write) MSHR misses (Count)
board.cache_hierarchy.iptw_caches0.overallMshrMisses::processor.cores0.core.mmu.itb.walker            9                       # number of overall MSHR misses (Count)
board.cache_hierarchy.iptw_caches0.overallMshrMisses::total            9                       # number of overall MSHR misses (Count)
board.cache_hierarchy.iptw_caches0.demandMshrMissLatency::processor.cores0.core.mmu.itb.walker       732000                       # number of demand (read+write) MSHR miss ticks (Tick)
board.cache_hierarchy.iptw_caches0.demandMshrMissLatency::total       732000                       # number of demand (read+write) MSHR miss ticks (Tick)
board.cache_hierarchy.iptw_caches0.overallMshrMissLatency::processor.cores0.core.mmu.itb.walker       732000                       # number of overall MSHR miss ticks (Tick)
board.cache_hierarchy.iptw_caches0.overallMshrMissLatency::total       732000                       # number of overall MSHR miss ticks (Tick)
board.cache_hierarchy.iptw_caches0.demandMshrMissRate::processor.cores0.core.mmu.itb.walker     0.230769                       # mshr miss ratio for demand accesses (Ratio)
board.cache_hierarchy.iptw_caches0.demandMshrMissRate::total     0.230769                       # mshr miss ratio for demand accesses (Ratio)
board.cache_hierarchy.iptw_caches0.overallMshrMissRate::processor.cores0.core.mmu.itb.walker     0.230769                       # mshr miss ratio for overall accesses (Ratio)
board.cache_hierarchy.iptw_caches0.overallMshrMissRate::total     0.230769                       # mshr miss ratio for overall accesses (Ratio)
board.cache_hierarchy.iptw_caches0.demandAvgMshrMissLatency::processor.cores0.core.mmu.itb.walker 81333.333333                       # average overall mshr miss latency ((Tick/Count))
board.cache_hierarchy.iptw_caches0.demandAvgMshrMissLatency::total 81333.333333                       # average overall mshr miss latency ((Tick/Count))
board.cache_hierarchy.iptw_caches0.overallAvgMshrMissLatency::processor.cores0.core.mmu.itb.walker 81333.333333                       # average overall mshr miss latency ((Tick/Count))
board.cache_hierarchy.iptw_caches0.overallAvgMshrMissLatency::total 81333.333333                       # average overall mshr miss latency ((Tick/Count))
board.cache_hierarchy.iptw_caches0.replacements            1                       # number of replacements (Count)
board.cache_hierarchy.iptw_caches0.ReadReq.hits::processor.cores0.core.mmu.itb.walker           30                       # number of ReadReq hits (Count)
board.cache_hierarchy.iptw_caches0.ReadReq.hits::total           30                       # number of ReadReq hits (Count)
board.cache_hierarchy.iptw_caches0.ReadReq.misses::processor.cores0.core.mmu.itb.walker            9                       # number of ReadReq misses (Count)
board.cache_hierarchy.iptw_caches0.ReadReq.misses::total            9                       # number of ReadReq misses (Count)
board.cache_hierarchy.iptw_caches0.ReadReq.missLatency::processor.cores0.core.mmu.itb.walker       741000                       # number of ReadReq miss ticks (Tick)
board.cache_hierarchy.iptw_caches0.ReadReq.missLatency::total       741000                       # number of ReadReq miss ticks (Tick)
board.cache_hierarchy.iptw_caches0.ReadReq.accesses::processor.cores0.core.mmu.itb.walker           39                       # number of ReadReq accesses(hits+misses) (Count)
board.cache_hierarchy.iptw_caches0.ReadReq.accesses::total           39                       # number of ReadReq accesses(hits+misses) (Count)
board.cache_hierarchy.iptw_caches0.ReadReq.missRate::processor.cores0.core.mmu.itb.walker     0.230769                       # miss rate for ReadReq accesses (Ratio)
board.cache_hierarchy.iptw_caches0.ReadReq.missRate::total     0.230769                       # miss rate for ReadReq accesses (Ratio)
board.cache_hierarchy.iptw_caches0.ReadReq.avgMissLatency::processor.cores0.core.mmu.itb.walker 82333.333333                       # average ReadReq miss latency ((Tick/Count))
board.cache_hierarchy.iptw_caches0.ReadReq.avgMissLatency::total 82333.333333                       # average ReadReq miss latency ((Tick/Count))
board.cache_hierarchy.iptw_caches0.ReadReq.mshrMisses::processor.cores0.core.mmu.itb.walker            9                       # number of ReadReq MSHR misses (Count)
board.cache_hierarchy.iptw_caches0.ReadReq.mshrMisses::total            9                       # number of ReadReq MSHR misses (Count)
board.cache_hierarchy.iptw_caches0.ReadReq.mshrMissLatency::processor.cores0.core.mmu.itb.walker       732000                       # number of ReadReq MSHR miss ticks (Tick)
board.cache_hierarchy.iptw_caches0.ReadReq.mshrMissLatency::total       732000                       # number of ReadReq MSHR miss ticks (Tick)
board.cache_hierarchy.iptw_caches0.ReadReq.mshrMissRate::processor.cores0.core.mmu.itb.walker     0.230769                       # mshr miss rate for ReadReq accesses (Ratio)
board.cache_hierarchy.iptw_caches0.ReadReq.mshrMissRate::total     0.230769                       # mshr miss rate for ReadReq accesses (Ratio)
board.cache_hierarchy.iptw_caches0.ReadReq.avgMshrMissLatency::processor.cores0.core.mmu.itb.walker 81333.333333                       # average ReadReq mshr miss latency ((Tick/Count))
board.cache_hierarchy.iptw_caches0.ReadReq.avgMshrMissLatency::total 81333.333333                       # average ReadReq mshr miss latency ((Tick/Count))
board.cache_hierarchy.iptw_caches0.power_state.pwrStateResidencyTicks::UNDEFINED 115934011540000                       # Cumulative time (in ticks) in various power states (Tick)
board.cache_hierarchy.iptw_caches0.tags.tagsInUse    35.999511                       # Average ticks per tags in use ((Tick/Count))
board.cache_hierarchy.iptw_caches0.tags.totalRefs           32                       # Total number of references to valid blocks. (Count)
board.cache_hierarchy.iptw_caches0.tags.sampledRefs            1                       # Sample count of references to valid blocks. (Count)
board.cache_hierarchy.iptw_caches0.tags.avgRefs           32                       # Average number of references to valid blocks. ((Count/Count))
board.cache_hierarchy.iptw_caches0.tags.warmupTick            0                       # The tick when the warmup percentage was hit. (Tick)
board.cache_hierarchy.iptw_caches0.tags.occupancies::processor.cores0.core.mmu.itb.walker    35.999511                       # Average occupied blocks per tick, per requestor ((Count/Tick))
board.cache_hierarchy.iptw_caches0.tags.avgOccs::processor.cores0.core.mmu.itb.walker     0.281246                       # Average percentage of cache occupancy ((Ratio/Tick))
board.cache_hierarchy.iptw_caches0.tags.avgOccs::total     0.281246                       # Average percentage of cache occupancy ((Ratio/Tick))
board.cache_hierarchy.iptw_caches0.tags.occupanciesTaskId::1024           36                       # Occupied blocks per task id (Count)
board.cache_hierarchy.iptw_caches0.tags.ageTaskId_1024::4           36                       # Occupied blocks per task id, per block age (Count)
board.cache_hierarchy.iptw_caches0.tags.ratioOccsTaskId::1024     0.281250                       # Ratio of occupied blocks and all blocks, per task id (Ratio)
board.cache_hierarchy.iptw_caches0.tags.tagAccesses          165                       # Number of tag accesses (Count)
board.cache_hierarchy.iptw_caches0.tags.dataAccesses          165                       # Number of data accesses (Count)
board.cache_hierarchy.iptw_caches0.tags.power_state.pwrStateResidencyTicks::UNDEFINED 115934011540000                       # Cumulative time (in ticks) in various power states (Tick)
board.cache_hierarchy.iptw_caches1.demandHits::processor.cores1.core.mmu.itb.walker           15                       # number of demand (read+write) hits (Count)
board.cache_hierarchy.iptw_caches1.demandHits::total           15                       # number of demand (read+write) hits (Count)
board.cache_hierarchy.iptw_caches1.overallHits::processor.cores1.core.mmu.itb.walker           15                       # number of overall hits (Count)
board.cache_hierarchy.iptw_caches1.overallHits::total           15                       # number of overall hits (Count)
board.cache_hierarchy.iptw_caches1.demandMisses::processor.cores1.core.mmu.itb.walker            3                       # number of demand (read+write) misses (Count)
board.cache_hierarchy.iptw_caches1.demandMisses::total            3                       # number of demand (read+write) misses (Count)
board.cache_hierarchy.iptw_caches1.overallMisses::processor.cores1.core.mmu.itb.walker            3                       # number of overall misses (Count)
board.cache_hierarchy.iptw_caches1.overallMisses::total            3                       # number of overall misses (Count)
board.cache_hierarchy.iptw_caches1.demandMissLatency::processor.cores1.core.mmu.itb.walker       105000                       # number of demand (read+write) miss ticks (Tick)
board.cache_hierarchy.iptw_caches1.demandMissLatency::total       105000                       # number of demand (read+write) miss ticks (Tick)
board.cache_hierarchy.iptw_caches1.overallMissLatency::processor.cores1.core.mmu.itb.walker       105000                       # number of overall miss ticks (Tick)
board.cache_hierarchy.iptw_caches1.overallMissLatency::total       105000                       # number of overall miss ticks (Tick)
board.cache_hierarchy.iptw_caches1.demandAccesses::processor.cores1.core.mmu.itb.walker           18                       # number of demand (read+write) accesses (Count)
board.cache_hierarchy.iptw_caches1.demandAccesses::total           18                       # number of demand (read+write) accesses (Count)
board.cache_hierarchy.iptw_caches1.overallAccesses::processor.cores1.core.mmu.itb.walker           18                       # number of overall (read+write) accesses (Count)
board.cache_hierarchy.iptw_caches1.overallAccesses::total           18                       # number of overall (read+write) accesses (Count)
board.cache_hierarchy.iptw_caches1.demandMissRate::processor.cores1.core.mmu.itb.walker     0.166667                       # miss rate for demand accesses (Ratio)
board.cache_hierarchy.iptw_caches1.demandMissRate::total     0.166667                       # miss rate for demand accesses (Ratio)
board.cache_hierarchy.iptw_caches1.overallMissRate::processor.cores1.core.mmu.itb.walker     0.166667                       # miss rate for overall accesses (Ratio)
board.cache_hierarchy.iptw_caches1.overallMissRate::total     0.166667                       # miss rate for overall accesses (Ratio)
board.cache_hierarchy.iptw_caches1.demandAvgMissLatency::processor.cores1.core.mmu.itb.walker        35000                       # average overall miss latency in ticks ((Tick/Count))
board.cache_hierarchy.iptw_caches1.demandAvgMissLatency::total        35000                       # average overall miss latency in ticks ((Tick/Count))
board.cache_hierarchy.iptw_caches1.overallAvgMissLatency::processor.cores1.core.mmu.itb.walker        35000                       # average overall miss latency ((Tick/Count))
board.cache_hierarchy.iptw_caches1.overallAvgMissLatency::total        35000                       # average overall miss latency ((Tick/Count))
board.cache_hierarchy.iptw_caches1.blockedCycles::no_mshrs            0                       # number of cycles access was blocked (Cycle)
board.cache_hierarchy.iptw_caches1.blockedCycles::no_targets            0                       # number of cycles access was blocked (Cycle)
board.cache_hierarchy.iptw_caches1.blockedCauses::no_mshrs            0                       # number of times access was blocked (Count)
board.cache_hierarchy.iptw_caches1.blockedCauses::no_targets            0                       # number of times access was blocked (Count)
board.cache_hierarchy.iptw_caches1.avgBlocked::no_mshrs          nan                       # average number of cycles each access was blocked ((Cycle/Count))
board.cache_hierarchy.iptw_caches1.avgBlocked::no_targets          nan                       # average number of cycles each access was blocked ((Cycle/Count))
board.cache_hierarchy.iptw_caches1.demandMshrMisses::processor.cores1.core.mmu.itb.walker            3                       # number of demand (read+write) MSHR misses (Count)
board.cache_hierarchy.iptw_caches1.demandMshrMisses::total            3                       # number of demand (read+write) MSHR misses (Count)
board.cache_hierarchy.iptw_caches1.overallMshrMisses::processor.cores1.core.mmu.itb.walker            3                       # number of overall MSHR misses (Count)
board.cache_hierarchy.iptw_caches1.overallMshrMisses::total            3                       # number of overall MSHR misses (Count)
board.cache_hierarchy.iptw_caches1.demandMshrMissLatency::processor.cores1.core.mmu.itb.walker       102000                       # number of demand (read+write) MSHR miss ticks (Tick)
board.cache_hierarchy.iptw_caches1.demandMshrMissLatency::total       102000                       # number of demand (read+write) MSHR miss ticks (Tick)
board.cache_hierarchy.iptw_caches1.overallMshrMissLatency::processor.cores1.core.mmu.itb.walker       102000                       # number of overall MSHR miss ticks (Tick)
board.cache_hierarchy.iptw_caches1.overallMshrMissLatency::total       102000                       # number of overall MSHR miss ticks (Tick)
board.cache_hierarchy.iptw_caches1.demandMshrMissRate::processor.cores1.core.mmu.itb.walker     0.166667                       # mshr miss ratio for demand accesses (Ratio)
board.cache_hierarchy.iptw_caches1.demandMshrMissRate::total     0.166667                       # mshr miss ratio for demand accesses (Ratio)
board.cache_hierarchy.iptw_caches1.overallMshrMissRate::processor.cores1.core.mmu.itb.walker     0.166667                       # mshr miss ratio for overall accesses (Ratio)
board.cache_hierarchy.iptw_caches1.overallMshrMissRate::total     0.166667                       # mshr miss ratio for overall accesses (Ratio)
board.cache_hierarchy.iptw_caches1.demandAvgMshrMissLatency::processor.cores1.core.mmu.itb.walker        34000                       # average overall mshr miss latency ((Tick/Count))
board.cache_hierarchy.iptw_caches1.demandAvgMshrMissLatency::total        34000                       # average overall mshr miss latency ((Tick/Count))
board.cache_hierarchy.iptw_caches1.overallAvgMshrMissLatency::processor.cores1.core.mmu.itb.walker        34000                       # average overall mshr miss latency ((Tick/Count))
board.cache_hierarchy.iptw_caches1.overallAvgMshrMissLatency::total        34000                       # average overall mshr miss latency ((Tick/Count))
board.cache_hierarchy.iptw_caches1.replacements            0                       # number of replacements (Count)
board.cache_hierarchy.iptw_caches1.ReadReq.hits::processor.cores1.core.mmu.itb.walker           15                       # number of ReadReq hits (Count)
board.cache_hierarchy.iptw_caches1.ReadReq.hits::total           15                       # number of ReadReq hits (Count)
board.cache_hierarchy.iptw_caches1.ReadReq.misses::processor.cores1.core.mmu.itb.walker            3                       # number of ReadReq misses (Count)
board.cache_hierarchy.iptw_caches1.ReadReq.misses::total            3                       # number of ReadReq misses (Count)
board.cache_hierarchy.iptw_caches1.ReadReq.missLatency::processor.cores1.core.mmu.itb.walker       105000                       # number of ReadReq miss ticks (Tick)
board.cache_hierarchy.iptw_caches1.ReadReq.missLatency::total       105000                       # number of ReadReq miss ticks (Tick)
board.cache_hierarchy.iptw_caches1.ReadReq.accesses::processor.cores1.core.mmu.itb.walker           18                       # number of ReadReq accesses(hits+misses) (Count)
board.cache_hierarchy.iptw_caches1.ReadReq.accesses::total           18                       # number of ReadReq accesses(hits+misses) (Count)
board.cache_hierarchy.iptw_caches1.ReadReq.missRate::processor.cores1.core.mmu.itb.walker     0.166667                       # miss rate for ReadReq accesses (Ratio)
board.cache_hierarchy.iptw_caches1.ReadReq.missRate::total     0.166667                       # miss rate for ReadReq accesses (Ratio)
board.cache_hierarchy.iptw_caches1.ReadReq.avgMissLatency::processor.cores1.core.mmu.itb.walker        35000                       # average ReadReq miss latency ((Tick/Count))
board.cache_hierarchy.iptw_caches1.ReadReq.avgMissLatency::total        35000                       # average ReadReq miss latency ((Tick/Count))
board.cache_hierarchy.iptw_caches1.ReadReq.mshrMisses::processor.cores1.core.mmu.itb.walker            3                       # number of ReadReq MSHR misses (Count)
board.cache_hierarchy.iptw_caches1.ReadReq.mshrMisses::total            3                       # number of ReadReq MSHR misses (Count)
board.cache_hierarchy.iptw_caches1.ReadReq.mshrMissLatency::processor.cores1.core.mmu.itb.walker       102000                       # number of ReadReq MSHR miss ticks (Tick)
board.cache_hierarchy.iptw_caches1.ReadReq.mshrMissLatency::total       102000                       # number of ReadReq MSHR miss ticks (Tick)
board.cache_hierarchy.iptw_caches1.ReadReq.mshrMissRate::processor.cores1.core.mmu.itb.walker     0.166667                       # mshr miss rate for ReadReq accesses (Ratio)
board.cache_hierarchy.iptw_caches1.ReadReq.mshrMissRate::total     0.166667                       # mshr miss rate for ReadReq accesses (Ratio)
board.cache_hierarchy.iptw_caches1.ReadReq.avgMshrMissLatency::processor.cores1.core.mmu.itb.walker        34000                       # average ReadReq mshr miss latency ((Tick/Count))
board.cache_hierarchy.iptw_caches1.ReadReq.avgMshrMissLatency::total        34000                       # average ReadReq mshr miss latency ((Tick/Count))
board.cache_hierarchy.iptw_caches1.power_state.pwrStateResidencyTicks::UNDEFINED 115934011540000                       # Cumulative time (in ticks) in various power states (Tick)
board.cache_hierarchy.iptw_caches1.tags.tagsInUse    18.000000                       # Average ticks per tags in use ((Tick/Count))
board.cache_hierarchy.iptw_caches1.tags.totalRefs            1                       # Total number of references to valid blocks. (Count)
board.cache_hierarchy.iptw_caches1.tags.sampledRefs            1                       # Sample count of references to valid blocks. (Count)
board.cache_hierarchy.iptw_caches1.tags.avgRefs            1                       # Average number of references to valid blocks. ((Count/Count))
board.cache_hierarchy.iptw_caches1.tags.warmupTick            0                       # The tick when the warmup percentage was hit. (Tick)
board.cache_hierarchy.iptw_caches1.tags.occupancies::processor.cores1.core.mmu.itb.walker    18.000000                       # Average occupied blocks per tick, per requestor ((Count/Tick))
board.cache_hierarchy.iptw_caches1.tags.avgOccs::processor.cores1.core.mmu.itb.walker     0.140625                       # Average percentage of cache occupancy ((Ratio/Tick))
board.cache_hierarchy.iptw_caches1.tags.avgOccs::total     0.140625                       # Average percentage of cache occupancy ((Ratio/Tick))
board.cache_hierarchy.iptw_caches1.tags.occupanciesTaskId::1024           18                       # Occupied blocks per task id (Count)
board.cache_hierarchy.iptw_caches1.tags.ageTaskId_1024::4           18                       # Occupied blocks per task id, per block age (Count)
board.cache_hierarchy.iptw_caches1.tags.ratioOccsTaskId::1024     0.140625                       # Ratio of occupied blocks and all blocks, per task id (Ratio)
board.cache_hierarchy.iptw_caches1.tags.tagAccesses           75                       # Number of tag accesses (Count)
board.cache_hierarchy.iptw_caches1.tags.dataAccesses           75                       # Number of data accesses (Count)
board.cache_hierarchy.iptw_caches1.tags.power_state.pwrStateResidencyTicks::UNDEFINED 115934011540000                       # Cumulative time (in ticks) in various power states (Tick)
board.cache_hierarchy.l1dcaches0.demandHits::processor.cores0.core.data   1409474189                       # number of demand (read+write) hits (Count)
board.cache_hierarchy.l1dcaches0.demandHits::total   1409474189                       # number of demand (read+write) hits (Count)
board.cache_hierarchy.l1dcaches0.overallHits::processor.cores0.core.data   1409474189                       # number of overall hits (Count)
board.cache_hierarchy.l1dcaches0.overallHits::total   1409474189                       # number of overall hits (Count)
board.cache_hierarchy.l1dcaches0.demandMisses::processor.cores0.core.data       739906                       # number of demand (read+write) misses (Count)
board.cache_hierarchy.l1dcaches0.demandMisses::total       739906                       # number of demand (read+write) misses (Count)
board.cache_hierarchy.l1dcaches0.overallMisses::processor.cores0.core.data       739906                       # number of overall misses (Count)
board.cache_hierarchy.l1dcaches0.overallMisses::total       739906                       # number of overall misses (Count)
board.cache_hierarchy.l1dcaches0.demandMissLatency::processor.cores0.core.data  26360139000                       # number of demand (read+write) miss ticks (Tick)
board.cache_hierarchy.l1dcaches0.demandMissLatency::total  26360139000                       # number of demand (read+write) miss ticks (Tick)
board.cache_hierarchy.l1dcaches0.overallMissLatency::processor.cores0.core.data  26360139000                       # number of overall miss ticks (Tick)
board.cache_hierarchy.l1dcaches0.overallMissLatency::total  26360139000                       # number of overall miss ticks (Tick)
board.cache_hierarchy.l1dcaches0.demandAccesses::processor.cores0.core.data   1410214095                       # number of demand (read+write) accesses (Count)
board.cache_hierarchy.l1dcaches0.demandAccesses::total   1410214095                       # number of demand (read+write) accesses (Count)
board.cache_hierarchy.l1dcaches0.overallAccesses::processor.cores0.core.data   1410214095                       # number of overall (read+write) accesses (Count)
board.cache_hierarchy.l1dcaches0.overallAccesses::total   1410214095                       # number of overall (read+write) accesses (Count)
board.cache_hierarchy.l1dcaches0.demandMissRate::processor.cores0.core.data     0.000525                       # miss rate for demand accesses (Ratio)
board.cache_hierarchy.l1dcaches0.demandMissRate::total     0.000525                       # miss rate for demand accesses (Ratio)
board.cache_hierarchy.l1dcaches0.overallMissRate::processor.cores0.core.data     0.000525                       # miss rate for overall accesses (Ratio)
board.cache_hierarchy.l1dcaches0.overallMissRate::total     0.000525                       # miss rate for overall accesses (Ratio)
board.cache_hierarchy.l1dcaches0.demandAvgMissLatency::processor.cores0.core.data 35626.334967                       # average overall miss latency in ticks ((Tick/Count))
board.cache_hierarchy.l1dcaches0.demandAvgMissLatency::total 35626.334967                       # average overall miss latency in ticks ((Tick/Count))
board.cache_hierarchy.l1dcaches0.overallAvgMissLatency::processor.cores0.core.data 35626.334967                       # average overall miss latency ((Tick/Count))
board.cache_hierarchy.l1dcaches0.overallAvgMissLatency::total 35626.334967                       # average overall miss latency ((Tick/Count))
board.cache_hierarchy.l1dcaches0.blockedCycles::no_mshrs            0                       # number of cycles access was blocked (Cycle)
board.cache_hierarchy.l1dcaches0.blockedCycles::no_targets            0                       # number of cycles access was blocked (Cycle)
board.cache_hierarchy.l1dcaches0.blockedCauses::no_mshrs            0                       # number of times access was blocked (Count)
board.cache_hierarchy.l1dcaches0.blockedCauses::no_targets            0                       # number of times access was blocked (Count)
board.cache_hierarchy.l1dcaches0.avgBlocked::no_mshrs          nan                       # average number of cycles each access was blocked ((Cycle/Count))
board.cache_hierarchy.l1dcaches0.avgBlocked::no_targets          nan                       # average number of cycles each access was blocked ((Cycle/Count))
board.cache_hierarchy.l1dcaches0.writebacks::writebacks       454103                       # number of writebacks (Count)
board.cache_hierarchy.l1dcaches0.writebacks::total       454103                       # number of writebacks (Count)
board.cache_hierarchy.l1dcaches0.demandMshrHits::processor.cores0.core.data            4                       # number of demand (read+write) MSHR hits (Count)
board.cache_hierarchy.l1dcaches0.demandMshrHits::total            4                       # number of demand (read+write) MSHR hits (Count)
board.cache_hierarchy.l1dcaches0.overallMshrHits::processor.cores0.core.data            4                       # number of overall MSHR hits (Count)
board.cache_hierarchy.l1dcaches0.overallMshrHits::total            4                       # number of overall MSHR hits (Count)
board.cache_hierarchy.l1dcaches0.demandMshrMisses::processor.cores0.core.data       739902                       # number of demand (read+write) MSHR misses (Count)
board.cache_hierarchy.l1dcaches0.demandMshrMisses::total       739902                       # number of demand (read+write) MSHR misses (Count)
board.cache_hierarchy.l1dcaches0.overallMshrMisses::cache_hierarchy.l1dcaches0.prefetcher       132882                       # number of overall MSHR misses (Count)
board.cache_hierarchy.l1dcaches0.overallMshrMisses::processor.cores0.core.data       739902                       # number of overall MSHR misses (Count)
board.cache_hierarchy.l1dcaches0.overallMshrMisses::total       872784                       # number of overall MSHR misses (Count)
board.cache_hierarchy.l1dcaches0.overallMshrUncacheable::processor.cores0.core.data         1720                       # number of overall MSHR uncacheable misses (Count)
board.cache_hierarchy.l1dcaches0.overallMshrUncacheable::total         1720                       # number of overall MSHR uncacheable misses (Count)
board.cache_hierarchy.l1dcaches0.demandMshrMissLatency::processor.cores0.core.data  25620131000                       # number of demand (read+write) MSHR miss ticks (Tick)
board.cache_hierarchy.l1dcaches0.demandMshrMissLatency::total  25620131000                       # number of demand (read+write) MSHR miss ticks (Tick)
board.cache_hierarchy.l1dcaches0.overallMshrMissLatency::cache_hierarchy.l1dcaches0.prefetcher   5950617972                       # number of overall MSHR miss ticks (Tick)
board.cache_hierarchy.l1dcaches0.overallMshrMissLatency::processor.cores0.core.data  25620131000                       # number of overall MSHR miss ticks (Tick)
board.cache_hierarchy.l1dcaches0.overallMshrMissLatency::total  31570748972                       # number of overall MSHR miss ticks (Tick)
board.cache_hierarchy.l1dcaches0.demandMshrMissRate::processor.cores0.core.data     0.000525                       # mshr miss ratio for demand accesses (Ratio)
board.cache_hierarchy.l1dcaches0.demandMshrMissRate::total     0.000525                       # mshr miss ratio for demand accesses (Ratio)
board.cache_hierarchy.l1dcaches0.overallMshrMissRate::cache_hierarchy.l1dcaches0.prefetcher          inf                       # mshr miss ratio for overall accesses (Ratio)
board.cache_hierarchy.l1dcaches0.overallMshrMissRate::processor.cores0.core.data     0.000525                       # mshr miss ratio for overall accesses (Ratio)
board.cache_hierarchy.l1dcaches0.overallMshrMissRate::total     0.000619                       # mshr miss ratio for overall accesses (Ratio)
board.cache_hierarchy.l1dcaches0.demandAvgMshrMissLatency::processor.cores0.core.data 34626.384305                       # average overall mshr miss latency ((Tick/Count))
board.cache_hierarchy.l1dcaches0.demandAvgMshrMissLatency::total 34626.384305                       # average overall mshr miss latency ((Tick/Count))
board.cache_hierarchy.l1dcaches0.overallAvgMshrMissLatency::cache_hierarchy.l1dcaches0.prefetcher 44781.219217                       # average overall mshr miss latency ((Tick/Count))
board.cache_hierarchy.l1dcaches0.overallAvgMshrMissLatency::processor.cores0.core.data 34626.384305                       # average overall mshr miss latency ((Tick/Count))
board.cache_hierarchy.l1dcaches0.overallAvgMshrMissLatency::total 36172.465320                       # average overall mshr miss latency ((Tick/Count))
board.cache_hierarchy.l1dcaches0.replacements       859353                       # number of replacements (Count)
board.cache_hierarchy.l1dcaches0.HardPFReq.mshrMisses::cache_hierarchy.l1dcaches0.prefetcher       132882                       # number of HardPFReq MSHR misses (Count)
board.cache_hierarchy.l1dcaches0.HardPFReq.mshrMisses::total       132882                       # number of HardPFReq MSHR misses (Count)
board.cache_hierarchy.l1dcaches0.HardPFReq.mshrMissLatency::cache_hierarchy.l1dcaches0.prefetcher   5950617972                       # number of HardPFReq MSHR miss ticks (Tick)
board.cache_hierarchy.l1dcaches0.HardPFReq.mshrMissLatency::total   5950617972                       # number of HardPFReq MSHR miss ticks (Tick)
board.cache_hierarchy.l1dcaches0.HardPFReq.mshrMissRate::cache_hierarchy.l1dcaches0.prefetcher          inf                       # mshr miss rate for HardPFReq accesses (Ratio)
board.cache_hierarchy.l1dcaches0.HardPFReq.mshrMissRate::total          inf                       # mshr miss rate for HardPFReq accesses (Ratio)
board.cache_hierarchy.l1dcaches0.HardPFReq.avgMshrMissLatency::cache_hierarchy.l1dcaches0.prefetcher 44781.219217                       # average HardPFReq mshr miss latency ((Tick/Count))
board.cache_hierarchy.l1dcaches0.HardPFReq.avgMshrMissLatency::total 44781.219217                       # average HardPFReq mshr miss latency ((Tick/Count))
board.cache_hierarchy.l1dcaches0.ReadReq.hits::processor.cores0.core.data   1181794096                       # number of ReadReq hits (Count)
board.cache_hierarchy.l1dcaches0.ReadReq.hits::total   1181794096                       # number of ReadReq hits (Count)
board.cache_hierarchy.l1dcaches0.ReadReq.misses::processor.cores0.core.data       704254                       # number of ReadReq misses (Count)
board.cache_hierarchy.l1dcaches0.ReadReq.misses::total       704254                       # number of ReadReq misses (Count)
board.cache_hierarchy.l1dcaches0.ReadReq.missLatency::processor.cores0.core.data  25745262000                       # number of ReadReq miss ticks (Tick)
board.cache_hierarchy.l1dcaches0.ReadReq.missLatency::total  25745262000                       # number of ReadReq miss ticks (Tick)
board.cache_hierarchy.l1dcaches0.ReadReq.accesses::processor.cores0.core.data   1182498350                       # number of ReadReq accesses(hits+misses) (Count)
board.cache_hierarchy.l1dcaches0.ReadReq.accesses::total   1182498350                       # number of ReadReq accesses(hits+misses) (Count)
board.cache_hierarchy.l1dcaches0.ReadReq.missRate::processor.cores0.core.data     0.000596                       # miss rate for ReadReq accesses (Ratio)
board.cache_hierarchy.l1dcaches0.ReadReq.missRate::total     0.000596                       # miss rate for ReadReq accesses (Ratio)
board.cache_hierarchy.l1dcaches0.ReadReq.avgMissLatency::processor.cores0.core.data 36556.784910                       # average ReadReq miss latency ((Tick/Count))
board.cache_hierarchy.l1dcaches0.ReadReq.avgMissLatency::total 36556.784910                       # average ReadReq miss latency ((Tick/Count))
board.cache_hierarchy.l1dcaches0.ReadReq.mshrHits::processor.cores0.core.data            4                       # number of ReadReq MSHR hits (Count)
board.cache_hierarchy.l1dcaches0.ReadReq.mshrHits::total            4                       # number of ReadReq MSHR hits (Count)
board.cache_hierarchy.l1dcaches0.ReadReq.mshrMisses::processor.cores0.core.data       704250                       # number of ReadReq MSHR misses (Count)
board.cache_hierarchy.l1dcaches0.ReadReq.mshrMisses::total       704250                       # number of ReadReq MSHR misses (Count)
board.cache_hierarchy.l1dcaches0.ReadReq.mshrMissLatency::processor.cores0.core.data  25040906000                       # number of ReadReq MSHR miss ticks (Tick)
board.cache_hierarchy.l1dcaches0.ReadReq.mshrMissLatency::total  25040906000                       # number of ReadReq MSHR miss ticks (Tick)
board.cache_hierarchy.l1dcaches0.ReadReq.mshrMissRate::processor.cores0.core.data     0.000596                       # mshr miss rate for ReadReq accesses (Ratio)
board.cache_hierarchy.l1dcaches0.ReadReq.mshrMissRate::total     0.000596                       # mshr miss rate for ReadReq accesses (Ratio)
board.cache_hierarchy.l1dcaches0.ReadReq.avgMshrMissLatency::processor.cores0.core.data 35556.842031                       # average ReadReq mshr miss latency ((Tick/Count))
board.cache_hierarchy.l1dcaches0.ReadReq.avgMshrMissLatency::total 35556.842031                       # average ReadReq mshr miss latency ((Tick/Count))
board.cache_hierarchy.l1dcaches0.SwapReq.hits::processor.cores0.core.data         3716                       # number of SwapReq hits (Count)
board.cache_hierarchy.l1dcaches0.SwapReq.hits::total         3716                       # number of SwapReq hits (Count)
board.cache_hierarchy.l1dcaches0.SwapReq.misses::processor.cores0.core.data          370                       # number of SwapReq misses (Count)
board.cache_hierarchy.l1dcaches0.SwapReq.misses::total          370                       # number of SwapReq misses (Count)
board.cache_hierarchy.l1dcaches0.SwapReq.missLatency::processor.cores0.core.data     14488000                       # number of SwapReq miss ticks (Tick)
board.cache_hierarchy.l1dcaches0.SwapReq.missLatency::total     14488000                       # number of SwapReq miss ticks (Tick)
board.cache_hierarchy.l1dcaches0.SwapReq.accesses::processor.cores0.core.data         4086                       # number of SwapReq accesses(hits+misses) (Count)
board.cache_hierarchy.l1dcaches0.SwapReq.accesses::total         4086                       # number of SwapReq accesses(hits+misses) (Count)
board.cache_hierarchy.l1dcaches0.SwapReq.missRate::processor.cores0.core.data     0.090553                       # miss rate for SwapReq accesses (Ratio)
board.cache_hierarchy.l1dcaches0.SwapReq.missRate::total     0.090553                       # miss rate for SwapReq accesses (Ratio)
board.cache_hierarchy.l1dcaches0.SwapReq.avgMissLatency::processor.cores0.core.data 39156.756757                       # average SwapReq miss latency ((Tick/Count))
board.cache_hierarchy.l1dcaches0.SwapReq.avgMissLatency::total 39156.756757                       # average SwapReq miss latency ((Tick/Count))
board.cache_hierarchy.l1dcaches0.SwapReq.mshrMisses::processor.cores0.core.data          370                       # number of SwapReq MSHR misses (Count)
board.cache_hierarchy.l1dcaches0.SwapReq.mshrMisses::total          370                       # number of SwapReq MSHR misses (Count)
board.cache_hierarchy.l1dcaches0.SwapReq.mshrMissLatency::processor.cores0.core.data     14118000                       # number of SwapReq MSHR miss ticks (Tick)
board.cache_hierarchy.l1dcaches0.SwapReq.mshrMissLatency::total     14118000                       # number of SwapReq MSHR miss ticks (Tick)
board.cache_hierarchy.l1dcaches0.SwapReq.mshrMissRate::processor.cores0.core.data     0.090553                       # mshr miss rate for SwapReq accesses (Ratio)
board.cache_hierarchy.l1dcaches0.SwapReq.mshrMissRate::total     0.090553                       # mshr miss rate for SwapReq accesses (Ratio)
board.cache_hierarchy.l1dcaches0.SwapReq.avgMshrMissLatency::processor.cores0.core.data 38156.756757                       # average SwapReq mshr miss latency ((Tick/Count))
board.cache_hierarchy.l1dcaches0.SwapReq.avgMshrMissLatency::total 38156.756757                       # average SwapReq mshr miss latency ((Tick/Count))
board.cache_hierarchy.l1dcaches0.WriteReq.hits::processor.cores0.core.data    227680093                       # number of WriteReq hits (Count)
board.cache_hierarchy.l1dcaches0.WriteReq.hits::total    227680093                       # number of WriteReq hits (Count)
board.cache_hierarchy.l1dcaches0.WriteReq.misses::processor.cores0.core.data        35652                       # number of WriteReq misses (Count)
board.cache_hierarchy.l1dcaches0.WriteReq.misses::total        35652                       # number of WriteReq misses (Count)
board.cache_hierarchy.l1dcaches0.WriteReq.missLatency::processor.cores0.core.data    614877000                       # number of WriteReq miss ticks (Tick)
board.cache_hierarchy.l1dcaches0.WriteReq.missLatency::total    614877000                       # number of WriteReq miss ticks (Tick)
board.cache_hierarchy.l1dcaches0.WriteReq.accesses::processor.cores0.core.data    227715745                       # number of WriteReq accesses(hits+misses) (Count)
board.cache_hierarchy.l1dcaches0.WriteReq.accesses::total    227715745                       # number of WriteReq accesses(hits+misses) (Count)
board.cache_hierarchy.l1dcaches0.WriteReq.missRate::processor.cores0.core.data     0.000157                       # miss rate for WriteReq accesses (Ratio)
board.cache_hierarchy.l1dcaches0.WriteReq.missRate::total     0.000157                       # miss rate for WriteReq accesses (Ratio)
board.cache_hierarchy.l1dcaches0.WriteReq.avgMissLatency::processor.cores0.core.data 17246.634130                       # average WriteReq miss latency ((Tick/Count))
board.cache_hierarchy.l1dcaches0.WriteReq.avgMissLatency::total 17246.634130                       # average WriteReq miss latency ((Tick/Count))
board.cache_hierarchy.l1dcaches0.WriteReq.mshrMisses::processor.cores0.core.data        35652                       # number of WriteReq MSHR misses (Count)
board.cache_hierarchy.l1dcaches0.WriteReq.mshrMisses::total        35652                       # number of WriteReq MSHR misses (Count)
board.cache_hierarchy.l1dcaches0.WriteReq.mshrUncacheable::processor.cores0.core.data         1720                       # number of WriteReq MSHR uncacheable (Count)
board.cache_hierarchy.l1dcaches0.WriteReq.mshrUncacheable::total         1720                       # number of WriteReq MSHR uncacheable (Count)
board.cache_hierarchy.l1dcaches0.WriteReq.mshrMissLatency::processor.cores0.core.data    579225000                       # number of WriteReq MSHR miss ticks (Tick)
board.cache_hierarchy.l1dcaches0.WriteReq.mshrMissLatency::total    579225000                       # number of WriteReq MSHR miss ticks (Tick)
board.cache_hierarchy.l1dcaches0.WriteReq.mshrMissRate::processor.cores0.core.data     0.000157                       # mshr miss rate for WriteReq accesses (Ratio)
board.cache_hierarchy.l1dcaches0.WriteReq.mshrMissRate::total     0.000157                       # mshr miss rate for WriteReq accesses (Ratio)
board.cache_hierarchy.l1dcaches0.WriteReq.avgMshrMissLatency::processor.cores0.core.data 16246.634130                       # average WriteReq mshr miss latency ((Tick/Count))
board.cache_hierarchy.l1dcaches0.WriteReq.avgMshrMissLatency::total 16246.634130                       # average WriteReq mshr miss latency ((Tick/Count))
board.cache_hierarchy.l1dcaches0.power_state.pwrStateResidencyTicks::UNDEFINED 115934011540000                       # Cumulative time (in ticks) in various power states (Tick)
board.cache_hierarchy.l1dcaches0.prefetcher.demandMshrMisses       739902                       # demands not covered by prefetchs (Count)
board.cache_hierarchy.l1dcaches0.prefetcher.pfIssued       133856                       # number of hwpf issued (Count)
board.cache_hierarchy.l1dcaches0.prefetcher.pfUnused         7471                       # number of HardPF blocks evicted w/o reference (Count)
board.cache_hierarchy.l1dcaches0.prefetcher.pfUseful       125431                       # number of useful prefetch (Count)
board.cache_hierarchy.l1dcaches0.prefetcher.pfUsefulButMiss           26                       # number of hit on prefetch but cache block is not in an usable state (Count)
board.cache_hierarchy.l1dcaches0.prefetcher.accuracy     0.937059                       # accuracy of the prefetcher (Count)
board.cache_hierarchy.l1dcaches0.prefetcher.coverage     0.144951                       # coverage brought by this prefetcher (Count)
board.cache_hierarchy.l1dcaches0.prefetcher.pfHitInCache          963                       # number of prefetches hitting in cache (Count)
board.cache_hierarchy.l1dcaches0.prefetcher.pfHitInMSHR           11                       # number of prefetches hitting in a MSHR (Count)
board.cache_hierarchy.l1dcaches0.prefetcher.pfHitInWB            0                       # number of prefetches hit in the Write Buffer (Count)
board.cache_hierarchy.l1dcaches0.prefetcher.pfLate          974                       # number of late prefetches (hitting in cache, MSHR or WB) (Count)
board.cache_hierarchy.l1dcaches0.prefetcher.pfIdentified       133856                       # number of prefetch candidates identified (Count)
board.cache_hierarchy.l1dcaches0.prefetcher.pfBufferHit            0                       # number of redundant prefetches already in prefetch queue (Count)
board.cache_hierarchy.l1dcaches0.prefetcher.pfInCache            0                       # number of redundant prefetches already in cache/mshr dropped (Count)
board.cache_hierarchy.l1dcaches0.prefetcher.pfRemovedDemand            0                       # number of prefetches dropped due to a demand for the same address (Count)
board.cache_hierarchy.l1dcaches0.prefetcher.pfRemovedFull            0                       # number of prefetches dropped due to prefetch queue size (Count)
board.cache_hierarchy.l1dcaches0.prefetcher.pfSpanPage      1920652                       # number of prefetches that crossed the page (Count)
board.cache_hierarchy.l1dcaches0.prefetcher.pfUsefulSpanPage            0                       # number of prefetches that is useful and crossed the page (Count)
board.cache_hierarchy.l1dcaches0.prefetcher.power_state.pwrStateResidencyTicks::UNDEFINED 115934011540000                       # Cumulative time (in ticks) in various power states (Tick)
board.cache_hierarchy.l1dcaches0.tags.tagsInUse   511.684441                       # Average ticks per tags in use ((Tick/Count))
board.cache_hierarchy.l1dcaches0.tags.totalRefs    122364633                       # Total number of references to valid blocks. (Count)
board.cache_hierarchy.l1dcaches0.tags.sampledRefs       868251                       # Sample count of references to valid blocks. (Count)
board.cache_hierarchy.l1dcaches0.tags.avgRefs   140.932326                       # Average number of references to valid blocks. ((Count/Count))
board.cache_hierarchy.l1dcaches0.tags.warmupTick            0                       # The tick when the warmup percentage was hit. (Tick)
board.cache_hierarchy.l1dcaches0.tags.occupancies::cache_hierarchy.l1dcaches0.prefetcher    87.189171                       # Average occupied blocks per tick, per requestor ((Count/Tick))
board.cache_hierarchy.l1dcaches0.tags.occupancies::processor.cores0.core.data   424.495270                       # Average occupied blocks per tick, per requestor ((Count/Tick))
board.cache_hierarchy.l1dcaches0.tags.avgOccs::cache_hierarchy.l1dcaches0.prefetcher     0.170291                       # Average percentage of cache occupancy ((Ratio/Tick))
board.cache_hierarchy.l1dcaches0.tags.avgOccs::processor.cores0.core.data     0.829092                       # Average percentage of cache occupancy ((Ratio/Tick))
board.cache_hierarchy.l1dcaches0.tags.avgOccs::total     0.999384                       # Average percentage of cache occupancy ((Ratio/Tick))
board.cache_hierarchy.l1dcaches0.tags.occupanciesTaskId::1022           42                       # Occupied blocks per task id (Count)
board.cache_hierarchy.l1dcaches0.tags.occupanciesTaskId::1024          390                       # Occupied blocks per task id (Count)
board.cache_hierarchy.l1dcaches0.tags.ageTaskId_1022::3           20                       # Occupied blocks per task id, per block age (Count)
board.cache_hierarchy.l1dcaches0.tags.ageTaskId_1022::4           22                       # Occupied blocks per task id, per block age (Count)
board.cache_hierarchy.l1dcaches0.tags.ageTaskId_1024::2            7                       # Occupied blocks per task id, per block age (Count)
board.cache_hierarchy.l1dcaches0.tags.ageTaskId_1024::3          271                       # Occupied blocks per task id, per block age (Count)
[...]
board.processor.cores1.core.commitStats0.committedInstType::IntDiv        51705      0.00%     62.21% # Class of committed instruction. (Count)
board.processor.cores1.core.commitStats0.committedInstType::FloatAdd     90801200      2.16%     64.37% # Class of committed instruction. (Count)
board.processor.cores1.core.commitStats0.committedInstType::FloatCmp            0      0.00%     64.37% # Class of committed instruction. (Count)
board.processor.cores1.core.commitStats0.committedInstType::FloatCvt            0      0.00%     64.37% # Class of committed instruction. (Count)
board.processor.cores1.core.commitStats0.committedInstType::FloatMult     85309600      2.03%     66.40% # Class of committed instruction. (Count)
board.processor.cores1.core.commitStats0.committedInstType::FloatMultAcc            0      0.00%     66.40% # Class of committed instruction. (Count)
board.processor.cores1.core.commitStats0.committedInstType::FloatDiv       160800      0.00%     66.41% # Class of committed instruction. (Count)
board.processor.cores1.core.commitStats0.committedInstType::FloatMisc            0      0.00%     66.41% # Class of committed instruction. (Count)
board.processor.cores1.core.commitStats0.committedInstType::FloatSqrt            0      0.00%     66.41% # Class of committed instruction. (Count)
board.processor.cores1.core.commitStats0.committedInstType::SimdAdd            0      0.00%     66.41% # Class of committed instruction. (Count)
board.processor.cores1.core.commitStats0.committedInstType::SimdAddAcc            0      0.00%     66.41% # Class of committed instruction. (Count)
board.processor.cores1.core.commitStats0.committedInstType::SimdAlu            0      0.00%     66.41% # Class of committed instruction. (Count)
board.processor.cores1.core.commitStats0.committedInstType::SimdCmp            0      0.00%     66.41% # Class of committed instruction. (Count)
board.processor.cores1.core.commitStats0.committedInstType::SimdCvt            0      0.00%     66.41% # Class of committed instruction. (Count)
board.processor.cores1.core.commitStats0.committedInstType::SimdMisc            0      0.00%     66.41% # Class of committed instruction. (Count)
board.processor.cores1.core.commitStats0.committedInstType::SimdMult            0      0.00%     66.41% # Class of committed instruction. (Count)
board.processor.cores1.core.commitStats0.committedInstType::SimdMultAcc            0      0.00%     66.41% # Class of committed instruction. (Count)
board.processor.cores1.core.commitStats0.committedInstType::SimdMatMultAcc            0      0.00%     66.41% # Class of committed instruction. (Count)
board.processor.cores1.core.commitStats0.committedInstType::SimdShift            0      0.00%     66.41% # Class of committed instruction. (Count)
board.processor.cores1.core.commitStats0.committedInstType::SimdShiftAcc            0      0.00%     66.41% # Class of committed instruction. (Count)
board.processor.cores1.core.commitStats0.committedInstType::SimdDiv            0      0.00%     66.41% # Class of committed instruction. (Count)
board.processor.cores1.core.commitStats0.committedInstType::SimdSqrt            0      0.00%     66.41% # Class of committed instruction. (Count)
board.processor.cores1.core.commitStats0.committedInstType::SimdFloatAdd            0      0.00%     66.41% # Class of committed instruction. (Count)
board.processor.cores1.core.commitStats0.committedInstType::SimdFloatAlu            0      0.00%     66.41% # Class of committed instruction. (Count)
board.processor.cores1.core.commitStats0.committedInstType::SimdFloatCmp            0      0.00%     66.41% # Class of committed instruction. (Count)
board.processor.cores1.core.commitStats0.committedInstType::SimdFloatCvt            0      0.00%     66.41% # Class of committed instruction. (Count)
board.processor.cores1.core.commitStats0.committedInstType::SimdFloatDiv            0      0.00%     66.41% # Class of committed instruction. (Count)
board.processor.cores1.core.commitStats0.committedInstType::SimdFloatMisc            0      0.00%     66.41% # Class of committed instruction. (Count)
board.processor.cores1.core.commitStats0.committedInstType::SimdFloatMult            0      0.00%     66.41% # Class of committed instruction. (Count)
board.processor.cores1.core.commitStats0.committedInstType::SimdFloatMultAcc            0      0.00%     66.41% # Class of committed instruction. (Count)
board.processor.cores1.core.commitStats0.committedInstType::SimdFloatMatMultAcc            0      0.00%     66.41% # Class of committed instruction. (Count)
board.processor.cores1.core.commitStats0.committedInstType::SimdFloatSqrt            0      0.00%     66.41% # Class of committed instruction. (Count)
board.processor.cores1.core.commitStats0.committedInstType::SimdReduceAdd            0      0.00%     66.41% # Class of committed instruction. (Count)
board.processor.cores1.core.commitStats0.committedInstType::SimdReduceAlu            0      0.00%     66.41% # Class of committed instruction. (Count)
board.processor.cores1.core.commitStats0.committedInstType::SimdReduceCmp            0      0.00%     66.41% # Class of committed instruction. (Count)
board.processor.cores1.core.commitStats0.committedInstType::SimdFloatReduceAdd            0      0.00%     66.41% # Class of committed instruction. (Count)
board.processor.cores1.core.commitStats0.committedInstType::SimdFloatReduceCmp            0      0.00%     66.41% # Class of committed instruction. (Count)
board.processor.cores1.core.commitStats0.committedInstType::SimdAes            0      0.00%     66.41% # Class of committed instruction. (Count)
board.processor.cores1.core.commitStats0.committedInstType::SimdAesMix            0      0.00%     66.41% # Class of committed instruction. (Count)
board.processor.cores1.core.commitStats0.committedInstType::SimdSha1Hash            0      0.00%     66.41% # Class of committed instruction. (Count)
board.processor.cores1.core.commitStats0.committedInstType::SimdSha1Hash2            0      0.00%     66.41% # Class of committed instruction. (Count)
board.processor.cores1.core.commitStats0.committedInstType::SimdSha256Hash            0      0.00%     66.41% # Class of committed instruction. (Count)
board.processor.cores1.core.commitStats0.committedInstType::SimdSha256Hash2            0      0.00%     66.41% # Class of committed instruction. (Count)
board.processor.cores1.core.commitStats0.committedInstType::SimdShaSigma2            0      0.00%     66.41% # Class of committed instruction. (Count)
board.processor.cores1.core.commitStats0.committedInstType::SimdShaSigma3            0      0.00%     66.41% # Class of committed instruction. (Count)
board.processor.cores1.core.commitStats0.committedInstType::SimdPredAlu            0      0.00%     66.41% # Class of committed instruction. (Count)
board.processor.cores1.core.commitStats0.committedInstType::Matrix            0      0.00%     66.41% # Class of committed instruction. (Count)
board.processor.cores1.core.commitStats0.committedInstType::MatrixMov            0      0.00%     66.41% # Class of committed instruction. (Count)
board.processor.cores1.core.commitStats0.committedInstType::MatrixOP            0      0.00%     66.41% # Class of committed instruction. (Count)
board.processor.cores1.core.commitStats0.committedInstType::MemRead    906033396     21.55%     87.96% # Class of committed instruction. (Count)
board.processor.cores1.core.commitStats0.committedInstType::MemWrite    127404284      3.03%     90.99% # Class of committed instruction. (Count)
board.processor.cores1.core.commitStats0.committedInstType::FloatMemRead    277595120      6.60%     97.59% # Class of committed instruction. (Count)
board.processor.cores1.core.commitStats0.committedInstType::FloatMemWrite    101323552      2.41%    100.00% # Class of committed instruction. (Count)
board.processor.cores1.core.commitStats0.committedInstType::IprAccess            0      0.00%    100.00% # Class of committed instruction. (Count)
board.processor.cores1.core.commitStats0.committedInstType::InstPrefetch            0      0.00%    100.00% # Class of committed instruction. (Count)
board.processor.cores1.core.commitStats0.committedInstType::VectorUnitStrideLoad            0      0.00%    100.00% # Class of committed instruction. (Count)
board.processor.cores1.core.commitStats0.committedInstType::VectorUnitStrideStore            0      0.00%    100.00% # Class of committed instruction. (Count)
board.processor.cores1.core.commitStats0.committedInstType::VectorUnitStrideMaskLoad            0      0.00%    100.00% # Class of committed instruction. (Count)
board.processor.cores1.core.commitStats0.committedInstType::VectorUnitStrideMaskStore            0      0.00%    100.00% # Class of committed instruction. (Count)
board.processor.cores1.core.commitStats0.committedInstType::VectorStridedLoad            0      0.00%    100.00% # Class of committed instruction. (Count)
board.processor.cores1.core.commitStats0.committedInstType::VectorStridedStore            0      0.00%    100.00% # Class of committed instruction. (Count)
board.processor.cores1.core.commitStats0.committedInstType::VectorIndexedLoad            0      0.00%    100.00% # Class of committed instruction. (Count)
board.processor.cores1.core.commitStats0.committedInstType::VectorIndexedStore            0      0.00%    100.00% # Class of committed instruction. (Count)
board.processor.cores1.core.commitStats0.committedInstType::VectorUnitStrideFaultOnlyFirstLoad            0      0.00%    100.00% # Class of committed instruction. (Count)
board.processor.cores1.core.commitStats0.committedInstType::VectorWholeRegisterLoad            0      0.00%    100.00% # Class of committed instruction. (Count)
board.processor.cores1.core.commitStats0.committedInstType::VectorWholeRegisterStore            0      0.00%    100.00% # Class of committed instruction. (Count)
board.processor.cores1.core.commitStats0.committedInstType::VectorIntegerArith            0      0.00%    100.00% # Class of committed instruction. (Count)
board.processor.cores1.core.commitStats0.committedInstType::VectorFloatArith            0      0.00%    100.00% # Class of committed instruction. (Count)
board.processor.cores1.core.commitStats0.committedInstType::VectorFloatConvert            0      0.00%    100.00% # Class of committed instruction. (Count)
board.processor.cores1.core.commitStats0.committedInstType::VectorIntegerReduce            0      0.00%    100.00% # Class of committed instruction. (Count)
board.processor.cores1.core.commitStats0.committedInstType::VectorFloatReduce            0      0.00%    100.00% # Class of committed instruction. (Count)
board.processor.cores1.core.commitStats0.committedInstType::VectorMisc            0      0.00%    100.00% # Class of committed instruction. (Count)
board.processor.cores1.core.commitStats0.committedInstType::VectorIntegerExtension            0      0.00%    100.00% # Class of committed instruction. (Count)
board.processor.cores1.core.commitStats0.committedInstType::VectorConfig            0      0.00%    100.00% # Class of committed instruction. (Count)
board.processor.cores1.core.commitStats0.committedInstType::total   4204256321                       # Class of committed instruction. (Count)
board.processor.cores1.core.commitStats0.committedControl::IsControl    222956883                       # Class of control type instructions committed (Count)
board.processor.cores1.core.commitStats0.committedControl::IsDirectControl    222793130                       # Class of control type instructions committed (Count)
board.processor.cores1.core.commitStats0.committedControl::IsIndirectControl       158410                       # Class of control type instructions committed (Count)
board.processor.cores1.core.commitStats0.committedControl::IsCondControl    114891417                       # Class of control type instructions committed (Count)
board.processor.cores1.core.commitStats0.committedControl::IsUncondControl    108060123                       # Class of control type instructions committed (Count)
board.processor.cores1.core.commitStats0.committedControl::IsCall       110315                       # Class of control type instructions committed (Count)
board.processor.cores1.core.commitStats0.committedControl::IsReturn       117395                       # Class of control type instructions committed (Count)
board.processor.cores1.core.exec_context.thread_0.numMatAluAccesses            0                       # Number of matrix alu accesses (Count)
board.processor.cores1.core.exec_context.thread_0.numCallsReturns       227710                       # Number of times a function call or return occured (Count)
board.processor.cores1.core.exec_context.thread_0.numMatInsts            0                       # Number of matrix instructions (Count)
board.processor.cores1.core.exec_context.thread_0.numIdleCycles            0                       # Number of idle cycles (Cycle)
board.processor.cores1.core.exec_context.thread_0.numBusyCycles   6872400427                       # Number of busy cycles (Cycle)
board.processor.cores1.core.exec_context.thread_0.notIdleFraction            1                       # Percentage of non-idle cycles (Ratio)
board.processor.cores1.core.exec_context.thread_0.idleFraction            0                       # Percentage of idle cycles (Ratio)
board.processor.cores1.core.executeStats0.numInsts            0                       # Number of executed instructions (Count)
board.processor.cores1.core.executeStats0.numNop            0                       # Number of nop insts executed (Count)
board.processor.cores1.core.executeStats0.numBranches            0                       # Number of branches executed (Count)
board.processor.cores1.core.executeStats0.numLoadInsts            0                       # Number of load instructions executed (Count)
board.processor.cores1.core.executeStats0.numStoreInsts   1412356352                       # Number of stores executed (Count)
board.processor.cores1.core.executeStats0.instRate            0                       # Inst execution rate ((Count/Cycle))
board.processor.cores1.core.executeStats0.numFpAluAccesses    555190272                       # Number of float alu accesses (Count)
board.processor.cores1.core.executeStats0.numFpRegReads    453866752                       # Number of times the floating registers were read (Count)
board.processor.cores1.core.executeStats0.numFpRegWrites    453866720                       # Number of times the floating registers were written (Count)
board.processor.cores1.core.executeStats0.numIntAluAccesses   3920124317                       # Number of integer alu accesses (Count)
board.processor.cores1.core.executeStats0.numIntRegReads   4686237989                       # Number of times the integer registers were read (Count)
board.processor.cores1.core.executeStats0.numIntRegWrites   3298030423                       # Number of times the integer registers were written (Count)
board.processor.cores1.core.executeStats0.numMemRefs   1412356352                       # Number of memory refs (Count)
board.processor.cores1.core.executeStats0.numMiscRegReads    907886247                       # Number of times the Misc registers were read (Count)
board.processor.cores1.core.executeStats0.numMiscRegWrites    352588989                       # Number of times the Misc registers were written (Count)
board.processor.cores1.core.executeStats0.numVecAluAccesses            0                       # Number of vector alu accesses (Count)
board.processor.cores1.core.executeStats0.numDiscardedOps            0                       # Number of ops (including micro ops) which were discarded before commit (Count)
board.processor.cores1.core.fetchStats0.numInsts   4204256038                       # Number of instructions fetched (thread level) (Count)
board.processor.cores1.core.fetchStats0.numOps   4204256321                       # Number of ops (including micro ops) fetched (thread level) (Count)
board.processor.cores1.core.fetchStats0.fetchRate     0.611759                       # Number of inst fetches per cycle ((Count/Cycle))
board.processor.cores1.core.fetchStats0.numBranches    222956883                       # Number of branches fetched (Count)
board.processor.cores1.core.fetchStats0.branchRate     0.032442                       # Number of branch fetches per cycle (Ratio)
board.processor.cores1.core.fetchStats0.numFetchSuspends            0                       # Number of times Execute suspended instruction fetching (Count)
board.processor.cores1.core.mmu.dtb.readHits   1183551921                       # read hits (Count)
board.processor.cores1.core.mmu.dtb.readMisses        16715                       # read misses (Count)
board.processor.cores1.core.mmu.dtb.readAccesses   1183568636                       # read accesses (Count)
board.processor.cores1.core.mmu.dtb.writeHits    228670270                       # write hits (Count)
board.processor.cores1.core.mmu.dtb.writeMisses          208                       # write misses (Count)
board.processor.cores1.core.mmu.dtb.writeAccesses    228670478                       # write accesses (Count)
board.processor.cores1.core.mmu.dtb.hits   1412222191                       # Total TLB (read and write) hits (Count)
board.processor.cores1.core.mmu.dtb.misses        16923                       # Total TLB (read and write) misses (Count)
board.processor.cores1.core.mmu.dtb.accesses   1412239114                       # Total TLB (read and write) accesses (Count)
board.processor.cores1.core.mmu.dtb.walker.power_state.pwrStateResidencyTicks::UNDEFINED 115934011610000                       # Cumulative time (in ticks) in various power states (Tick)
board.processor.cores1.core.mmu.itb.readHits   5432597932                       # read hits (Count)
board.processor.cores1.core.mmu.itb.readMisses            6                       # read misses (Count)
board.processor.cores1.core.mmu.itb.readAccesses   5432597938                       # read accesses (Count)
board.processor.cores1.core.mmu.itb.writeHits            0                       # write hits (Count)
board.processor.cores1.core.mmu.itb.writeMisses            0                       # write misses (Count)
board.processor.cores1.core.mmu.itb.writeAccesses            0                       # write accesses (Count)
board.processor.cores1.core.mmu.itb.hits   5432597932                       # Total TLB (read and write) hits (Count)
board.processor.cores1.core.mmu.itb.misses            6                       # Total TLB (read and write) misses (Count)
board.processor.cores1.core.mmu.itb.accesses   5432597938                       # Total TLB (read and write) accesses (Count)
board.processor.cores1.core.mmu.itb.walker.power_state.pwrStateResidencyTicks::UNDEFINED 115934011610000                       # Cumulative time (in ticks) in various power states (Tick)
board.processor.cores1.core.power_state.pwrStateResidencyTicks::ON 6914164359000                       # Cumulative time (in ticks) in various power states (Tick)
board.processor.cores1.core.thread_0.numInsts            0                       # Number of Instructions committed (Count)
board.processor.cores1.core.thread_0.numOps            0                       # Number of Ops committed (Count)
board.processor.cores1.core.thread_0.numMemRefs            0                       # Number of Memory References (Count)
board.rng.power_state.pwrStateResidencyTicks::UNDEFINED 115934011610000                       # Cumulative time (in ticks) in various power states (Tick)
board.workload.inst.arm                             0                       # number of arm instructions executed (Count)
board.workload.inst.quiesce                         0                       # number of quiesce instructions executed (Count)

---------- End Simulation Statistics   ----------
